@<TRIPOS>MOLECULE
ligand1
   40    43     0     0     0
SMALL
NO_CHARGES

@<TRIPOS>ATOM
      1 C1         -5.0711    6.1480    0.1957 C.ar      1 <0>         0.0000
      2 C2         -5.1254    5.0813   -0.7014 C.ar      1 <0>         0.0000
      3 C3         -3.8433    6.7262    0.5182 C.ar      1 <0>         0.0000
      4 C4          0.6293    2.2941    0.5615 C.ar      1 <0>         0.0000
      5 C5         -3.9519    4.5928   -1.2760 C.ar      1 <0>         0.0000
      6 C6         -2.6699    6.2377   -0.0563 C.ar      1 <0>         0.0000
      7 C7          0.1350    3.4508   -0.0447 C.ar      1 <0>         0.0000
      8 C8         -1.5457    2.1643   -1.2544 C.ar      1 <0>         0.0000
      9 C9          0.0257    1.0927    0.2446 C.ar      1 <0>         0.0000
     10 C10        -2.7242    5.1710   -0.9534 C.ar      1 <0>         0.0000
     11 C11        -0.9434    3.3868   -0.9444 C.ar      1 <0>         0.0000
     12 C12        -1.0512    1.0215   -0.6500 C.ar      1 <0>         0.0000
     13 C13        -0.7316   -1.0388   -0.0950 C.2       1 <0>         0.0000
     14 C14         1.5603   -2.9605    1.8403 C.2       1 <0>         0.0000
     15 C15        -0.7705   -2.5267   -0.0156 C.3       1 <0>         0.0000
     16 C16         1.6654   -0.8751    0.3879 C.3       1 <0>         0.0000
     17 C17         0.3012   -0.2884    0.7320 C.3       1 <0>         0.0000
     18 C18         1.6579   -2.4082    0.4295 C.3       1 <0>         0.0000
     19 C19        -1.4493    4.6408   -1.5768 C.3       1 <0>         0.0000
     20 N1         -1.5004   -0.2999   -0.8439 N.2       1 <0>         0.0000
     21 N2          0.5678   -3.0126   -0.3478 N.3       1 <0>         0.0000
     22 O1          0.9933   -4.0836    1.9415 O.co2     1 <0>         0.0000
     23 O2          2.0611   -2.2219    2.7341 O.co2     1 <0>         0.0000
     24 H1         -5.9850    6.5291    0.6419 H         1 <0>         0.0000
     25 H2         -6.0813    4.6316   -0.9536 H         1 <0>         0.0000
     26 H3         -3.8008    7.5574    1.2158 H         1 <0>         0.0000
     27 H4          1.4573    2.3437    1.2595 H         1 <0>         0.0000
     28 H5         -4.0038    3.7612   -1.9738 H         1 <0>         0.0000
     29 H6         -1.7179    6.6944    0.2010 H         1 <0>         0.0000
     30 H7          0.5934    4.4091    0.1881 H         1 <0>         0.0000
     31 H8         -2.3749    2.1093   -1.9525 H         1 <0>         0.0000
     32 H9         -1.0755   -2.8303    0.9908 H         1 <0>         0.0000
     33 H10        -1.4991   -2.9162   -0.7327 H         1 <0>         0.0000
     34 H11         1.9667   -0.5583   -0.6205 H         1 <0>         0.0000
     35 H12         2.4198   -0.4751    1.0766 H         1 <0>         0.0000
     36 H13         0.0509   -0.3915    1.7928 H         1 <0>         0.0000
     37 H14         2.6059   -2.7762    0.0205 H         1 <0>         0.0000
     38 H15        -1.6162    4.4875   -2.6571 H         1 <0>         0.0000
     39 H16        -0.6778    5.4293   -1.5400 H         1 <0>         0.0000
     40 H17         0.5980   -4.0284   -0.2681 H         1 <0>         0.0000
@<TRIPOS>BOND
     1    1    2 ar
     2    1    3 ar
     3    2    5 ar
     4    3    6 ar
     5    4    7 ar
     6    4    9 ar
     7    5   10 ar
     8    6   10 ar
     9    7   11 ar
    10    8   11 ar
    11    8   12 ar
    12    9   12 ar
    13    9   17 1
    14   10   19 1
    15   11   19 1
    16   12   20 1
    17   13   15 1
    18   13   17 1
    19   13   20 2
    20   14   18 1
    21   14   22 1
    22   14   23 2
    23   15   21 1
    24   16   17 1
    25   16   18 1
    26   18   21 1
    27    1   24 1
    28    2   25 1
    29    3   26 1
    30    4   27 1
    31    5   28 1
    32    6   29 1
    33    7   30 1
    34    8   31 1
    35   15   32 1
    36   15   33 1
    37   16   34 1
    38   16   35 1
    39   17   36 1
    40   18   37 1
    41   19   38 1
    42   19   39 1
    43   21   40 1
@<TRIPOS>MOLECULE
ligand2
   40    43     0     0     0
SMALL
NO_CHARGES

@<TRIPOS>ATOM
      1 C1         -1.3383    4.5070   -5.3757 C.ar      1 <0>         0.0000
      2 C2         -0.1513    5.1885   -5.6444 C.ar      1 <0>         0.0000
      3 C3          0.6293    2.2941    0.5615 C.ar      1 <0>         0.0000
      4 C4         -1.7579    4.3302   -4.0572 C.ar      1 <0>         0.0000
      5 C5          0.1350    3.4508   -0.0447 C.ar      1 <0>         0.0000
      6 C6          0.6162    5.6930   -4.5947 C.ar      1 <0>         0.0000
      7 C7         -1.5457    2.1643   -1.2544 C.ar      1 <0>         0.0000
      8 C8          0.0257    1.0927    0.2446 C.ar      1 <0>         0.0000
      9 C9         -0.9434    3.3868   -0.9444 C.ar      1 <0>         0.0000
     10 C10        -0.9903    4.8347   -3.0074 C.ar      1 <0>         0.0000
     11 C11        -1.0512    1.0215   -0.6500 C.ar      1 <0>         0.0000
     12 C12         0.1968    5.5161   -3.2762 C.ar      1 <0>         0.0000
     13 C13        -0.7316   -1.0388   -0.0950 C.2       1 <0>         0.0000
     14 C14         1.5603   -2.9605    1.8403 C.2       1 <0>         0.0000
     15 C15        -0.7705   -2.5267   -0.0156 C.3       1 <0>         0.0000
     16 C16         1.6654   -0.8751    0.3879 C.3       1 <0>         0.0000
     17 C17         0.3012   -0.2884    0.7320 C.3       1 <0>         0.0000
     18 C18         1.6579   -2.4082    0.4295 C.3       1 <0>         0.0000
     19 C19        -1.4493    4.6408   -1.5768 C.3       1 <0>         0.0000
     20 N1         -1.5004   -0.2999   -0.8439 N.2       1 <0>         0.0000
     21 N2          0.5678   -3.0126   -0.3478 N.3       1 <0>         0.0000
     22 O1          0.9933   -4.0836    1.9415 O.co2     1 <0>         0.0000
     23 O2          2.0611   -2.2219    2.7341 O.co2     1 <0>         0.0000
     24 F1          0.9409    6.0047   -2.2742 F         1 <0>         0.0000
     25 H1         -1.9360    4.1136   -6.1931 H         1 <0>         0.0000
     26 H2          0.1756    5.3256   -6.6710 H         1 <0>         0.0000
     27 H3          1.4573    2.3437    1.2595 H         1 <0>         0.0000
     28 H4         -2.6838    3.7974   -3.8574 H         1 <0>         0.0000
     29 H5          0.5934    4.4091    0.1881 H         1 <0>         0.0000
     30 H6          1.5404    6.2239   -4.8037 H         1 <0>         0.0000
     31 H7         -2.3749    2.1093   -1.9525 H         1 <0>         0.0000
     32 H8         -1.0755   -2.8303    0.9908 H         1 <0>         0.0000
     33 H9         -1.4991   -2.9162   -0.7327 H         1 <0>         0.0000
     34 H10         1.9667   -0.5583   -0.6205 H         1 <0>         0.0000
     35 H11         2.4198   -0.4751    1.0766 H         1 <0>         0.0000
     36 H12         0.0509   -0.3915    1.7928 H         1 <0>         0.0000
     37 H13         2.6059   -2.7762    0.0205 H         1 <0>         0.0000
     38 H14        -2.5524    4.6691   -1.5480 H         1 <0>         0.0000
     39 H15        -1.1489    5.5210   -0.9824 H         1 <0>         0.0000
     40 H16         0.5980   -4.0284   -0.2681 H         1 <0>         0.0000
@<TRIPOS>BOND
     1    1    2 ar
     2    1    4 ar
     3    2    6 ar
     4    3    5 ar
     5    3    8 ar
     6    4   10 ar
     7    5    9 ar
     8    6   12 ar
     9    7    9 ar
    10    7   11 ar
    11    8   11 ar
    12    8   17 1
    13    9   19 1
    14   10   12 ar
    15   10   19 1
    16   11   20 1
    17   12   24 1
    18   13   15 1
    19   13   17 1
    20   13   20 2
    21   14   18 1
    22   14   22 1
    23   14   23 2
    24   15   21 1
    25   16   17 1
    26   16   18 1
    27   18   21 1
    28    1   25 1
    29    2   26 1
    30    3   27 1
    31    4   28 1
    32    5   29 1
    33    6   30 1
    34    7   31 1
    35   15   32 1
    36   15   33 1
    37   16   34 1
    38   16   35 1
    39   17   36 1
    40   18   37 1
    41   19   38 1
    42   19   39 1
    43   21   40 1
@<TRIPOS>MOLECULE
ligand3
   40    43     0     0     0
SMALL
NO_CHARGES

@<TRIPOS>ATOM
      1 C1          0.4831    5.8881   -4.6063 C.ar      1 <0>         0.0000
      2 C2          0.6293    2.2941    0.5615 C.ar      1 <0>         0.0000
      3 C3          0.0597    5.7087   -3.2895 C.ar      1 <0>         0.0000
      4 C4          0.1350    3.4508   -0.0447 C.ar      1 <0>         0.0000
      5 C5         -0.1435    5.1937   -5.6412 C.ar      1 <0>         0.0000
      6 C6         -1.5457    2.1643   -1.2544 C.ar      1 <0>         0.0000
      7 C7         -1.6168    4.1403   -4.0423 C.ar      1 <0>         0.0000
      8 C8          0.0257    1.0927    0.2446 C.ar      1 <0>         0.0000
      9 C9         -0.9434    3.3868   -0.9444 C.ar      1 <0>         0.0000
     10 C10        -0.9903    4.8347   -3.0074 C.ar      1 <0>         0.0000
     11 C11        -1.0512    1.0215   -0.6500 C.ar      1 <0>         0.0000
     12 C12        -1.1934    4.3198   -5.3592 C.ar      1 <0>         0.0000
     13 C13        -0.7316   -1.0388   -0.0950 C.2       1 <0>         0.0000
     14 C14         1.5603   -2.9605    1.8403 C.2       1 <0>         0.0000
     15 C15        -0.7705   -2.5267   -0.0156 C.3       1 <0>         0.0000
     16 C16         1.6654   -0.8751    0.3879 C.3       1 <0>         0.0000
     17 C17         0.3012   -0.2884    0.7320 C.3       1 <0>         0.0000
     18 C18         1.6579   -2.4082    0.4295 C.3       1 <0>         0.0000
     19 C19        -1.4493    4.6408   -1.5768 C.3       1 <0>         0.0000
     20 N1         -1.5004   -0.2999   -0.8439 N.2       1 <0>         0.0000
     21 N2          0.5678   -3.0126   -0.3478 N.3       1 <0>         0.0000
     22 O1          0.9933   -4.0836    1.9415 O.co2     1 <0>         0.0000
     23 O2          2.0611   -2.2219    2.7341 O.co2     1 <0>         0.0000
     24 F1         -1.7949    3.6526   -6.3527 F         1 <0>         0.0000
     25 H1          1.3004    6.5689   -4.8261 H         1 <0>         0.0000
     26 H2          1.4573    2.3437    1.2595 H         1 <0>         0.0000
     27 H3          0.5540    6.2538   -2.4896 H         1 <0>         0.0000
     28 H4          0.5934    4.4091    0.1881 H         1 <0>         0.0000
     29 H5          0.1866    5.3331   -6.6661 H         1 <0>         0.0000
     30 H6         -2.3749    2.1093   -1.9525 H         1 <0>         0.0000
     31 H7         -2.4360    3.4579   -3.8325 H         1 <0>         0.0000
     32 H8         -1.0755   -2.8303    0.9908 H         1 <0>         0.0000
     33 H9         -1.4991   -2.9162   -0.7327 H         1 <0>         0.0000
     34 H10         1.9667   -0.5583   -0.6205 H         1 <0>         0.0000
     35 H11         2.4198   -0.4751    1.0766 H         1 <0>         0.0000
     36 H12         0.0509   -0.3915    1.7928 H         1 <0>         0.0000
     37 H13         2.6059   -2.7762    0.0205 H         1 <0>         0.0000
     38 H14        -2.5524    4.6691   -1.5480 H         1 <0>         0.0000
     39 H15        -1.1489    5.5210   -0.9824 H         1 <0>         0.0000
     40 H16         0.5980   -4.0284   -0.2681 H         1 <0>         0.0000
@<TRIPOS>BOND
     1    1    3 ar
     2    1    5 ar
     3    2    4 ar
     4    2    8 ar
     5    3   10 ar
     6    4    9 ar
     7    5   12 ar
     8    6    9 ar
     9    6   11 ar
    10    7   10 ar
    11    7   12 ar
    12    8   11 ar
    13    8   17 1
    14    9   19 1
    15   10   19 1
    16   11   20 1
    17   12   24 1
    18   13   15 1
    19   13   17 1
    20   13   20 2
    21   14   18 1
    22   14   22 1
    23   14   23 2
    24   15   21 1
    25   16   17 1
    26   16   18 1
    27   18   21 1
    28    1   25 1
    29    2   26 1
    30    3   27 1
    31    4   28 1
    32    5   29 1
    33    6   30 1
    34    7   31 1
    35   15   32 1
    36   15   33 1
    37   16   34 1
    38   16   35 1
    39   17   36 1
    40   18   37 1
    41   19   38 1
    42   19   39 1
    43   21   40 1
@<TRIPOS>MOLECULE
ligand4
   40    43     0     0     0
SMALL
NO_CHARGES

@<TRIPOS>ATOM
      1 C1          0.6293    2.2941    0.5615 C.ar      1 <0>         0.0000
      2 C2          0.1350    3.4508   -0.0447 C.ar      1 <0>         0.0000
      3 C3         -3.9519    4.5928   -1.2760 C.ar      1 <0>         0.0000
      4 C4         -2.6700    6.2384   -0.0571 C.ar      1 <0>         0.0000
      5 C5         -5.1254    5.0819   -0.7022 C.ar      1 <0>         0.0000
      6 C6         -3.8435    6.7276    0.5167 C.ar      1 <0>         0.0000
      7 C7         -1.5457    2.1643   -1.2544 C.ar      1 <0>         0.0000
      8 C8          0.0257    1.0927    0.2446 C.ar      1 <0>         0.0000
      9 C9         -2.7242    5.1710   -0.9534 C.ar      1 <0>         0.0000
     10 C10        -0.9434    3.3868   -0.9444 C.ar      1 <0>         0.0000
     11 C11        -1.0512    1.0215   -0.6500 C.ar      1 <0>         0.0000
     12 C12        -5.0712    6.1493    0.1941 C.ar      1 <0>         0.0000
     13 C13        -0.7316   -1.0388   -0.0950 C.2       1 <0>         0.0000
     14 C14         1.5603   -2.9605    1.8403 C.2       1 <0>         0.0000
     15 C15        -0.7705   -2.5267   -0.0156 C.3       1 <0>         0.0000
     16 C16         1.6654   -0.8751    0.3879 C.3       1 <0>         0.0000
     17 C17         0.3012   -0.2884    0.7320 C.3       1 <0>         0.0000
     18 C18         1.6579   -2.4082    0.4295 C.3       1 <0>         0.0000
     19 C19        -1.4493    4.6408   -1.5768 C.3       1 <0>         0.0000
     20 N1         -1.5004   -0.2999   -0.8439 N.2       1 <0>         0.0000
     21 N2          0.5678   -3.0126   -0.3478 N.3       1 <0>         0.0000
     22 O1          0.9933   -4.0836    1.9415 O.co2     1 <0>         0.0000
     23 O2          2.0611   -2.2219    2.7341 O.co2     1 <0>         0.0000
     24 F1         -6.1984    6.6208    0.7431 F         1 <0>         0.0000
     25 H1          1.4573    2.3437    1.2595 H         1 <0>         0.0000
     26 H2          0.5934    4.4091    0.1881 H         1 <0>         0.0000
     27 H3         -4.0041    3.7602   -1.9727 H         1 <0>         0.0000
     28 H4         -1.7180    6.6954    0.2000 H         1 <0>         0.0000
     29 H5         -6.0813    4.6323   -0.9537 H         1 <0>         0.0000
     30 H6         -3.8017    7.5582    1.2149 H         1 <0>         0.0000
     31 H7         -2.3749    2.1093   -1.9525 H         1 <0>         0.0000
     32 H8         -1.0755   -2.8303    0.9908 H         1 <0>         0.0000
     33 H9         -1.4991   -2.9162   -0.7327 H         1 <0>         0.0000
     34 H10         1.9667   -0.5583   -0.6205 H         1 <0>         0.0000
     35 H11         2.4198   -0.4751    1.0766 H         1 <0>         0.0000
     36 H12         0.0509   -0.3915    1.7928 H         1 <0>         0.0000
     37 H13         2.6059   -2.7762    0.0205 H         1 <0>         0.0000
     38 H14        -1.6162    4.4875   -2.6571 H         1 <0>         0.0000
     39 H15        -0.6778    5.4293   -1.5400 H         1 <0>         0.0000
     40 H16         0.5980   -4.0284   -0.2681 H         1 <0>         0.0000
@<TRIPOS>BOND
     1    1    2 ar
     2    1    8 ar
     3    2   10 ar
     4    3    5 ar
     5    3    9 ar
     6    4    6 ar
     7    4    9 ar
     8    5   12 ar
     9    6   12 ar
    10    7   10 ar
    11    7   11 ar
    12    8   11 ar
    13    8   17 1
    14    9   19 1
    15   10   19 1
    16   11   20 1
    17   12   24 1
    18   13   15 1
    19   13   17 1
    20   13   20 2
    21   14   18 1
    22   14   22 1
    23   14   23 2
    24   15   21 1
    25   16   17 1
    26   16   18 1
    27   18   21 1
    28    1   25 1
    29    2   26 1
    30    3   27 1
    31    4   28 1
    32    5   29 1
    33    6   30 1
    34    7   31 1
    35   15   32 1
    36   15   33 1
    37   16   34 1
    38   16   35 1
    39   17   36 1
    40   18   37 1
    41   19   38 1
    42   19   39 1
    43   21   40 1
@<TRIPOS>MOLECULE
ligand5
   40    43     0     0     0
SMALL
NO_CHARGES

@<TRIPOS>ATOM
      1 C1         -2.4868    7.2337    0.9851 C.ar      1 <0>         0.0000
      2 C2         -3.8690    7.0544    1.0396 C.ar      1 <0>         0.0000
      3 C3          0.6293    2.2941    0.5615 C.ar      1 <0>         0.0000
      4 C4         -1.7144    6.4452    0.1322 C.ar      1 <0>         0.0000
      5 C5          0.1350    3.4508   -0.0447 C.ar      1 <0>         0.0000
      6 C6         -4.4788    6.0866    0.2414 C.ar      1 <0>         0.0000
      7 C7         -1.5457    2.1643   -1.2544 C.ar      1 <0>         0.0000
      8 C8          0.0257    1.0927    0.2446 C.ar      1 <0>         0.0000
      9 C9         -0.9434    3.3868   -0.9444 C.ar      1 <0>         0.0000
     10 C10        -2.3242    5.4774   -0.6660 C.ar      1 <0>         0.0000
     11 C11        -1.0512    1.0215   -0.6500 C.ar      1 <0>         0.0000
     12 C12        -3.7064    5.2981   -0.6114 C.ar      1 <0>         0.0000
     13 C13        -0.7316   -1.0388   -0.0950 C.2       1 <0>         0.0000
     14 C14         1.5603   -2.9605    1.8403 C.2       1 <0>         0.0000
     15 C15        -0.7705   -2.5267   -0.0156 C.3       1 <0>         0.0000
     16 C16         1.6654   -0.8751    0.3879 C.3       1 <0>         0.0000
     17 C17         0.3012   -0.2884    0.7320 C.3       1 <0>         0.0000
     18 C18         1.6579   -2.4082    0.4295 C.3       1 <0>         0.0000
     19 C19        -1.4493    4.6408   -1.5768 C.3       1 <0>         0.0000
     20 N1         -1.5004   -0.2999   -0.8439 N.2       1 <0>         0.0000
     21 N2          0.5678   -3.0126   -0.3478 N.3       1 <0>         0.0000
     22 O1          0.9933   -4.0836    1.9415 O.co2     1 <0>         0.0000
     23 O2          2.0611   -2.2219    2.7341 O.co2     1 <0>         0.0000
     24 Cl1        -4.4961    4.1109   -1.5841 Cl        1 <0>         0.0000
     25 H1         -2.0123    7.9880    1.6061 H         1 <0>         0.0000
     26 H2         -4.4702    7.6694    1.7029 H         1 <0>         0.0000
     27 H3          1.4573    2.3437    1.2595 H         1 <0>         0.0000
     28 H4         -0.6382    6.5934    0.0971 H         1 <0>         0.0000
     29 H5          0.5934    4.4091    0.1881 H         1 <0>         0.0000
     30 H6         -5.5572    5.9603    0.2949 H         1 <0>         0.0000
     31 H7         -2.3749    2.1093   -1.9525 H         1 <0>         0.0000
     32 H8         -1.0755   -2.8303    0.9908 H         1 <0>         0.0000
     33 H9         -1.4991   -2.9162   -0.7327 H         1 <0>         0.0000
     34 H10         1.9667   -0.5583   -0.6205 H         1 <0>         0.0000
     35 H11         2.4198   -0.4751    1.0766 H         1 <0>         0.0000
     36 H12         0.0509   -0.3915    1.7928 H         1 <0>         0.0000
     37 H13         2.6059   -2.7762    0.0205 H         1 <0>         0.0000
     38 H14        -0.6075    5.2600   -1.9322 H         1 <0>         0.0000
     39 H15        -2.0112    4.4086   -2.4981 H         1 <0>         0.0000
     40 H16         0.5980   -4.0284   -0.2681 H         1 <0>         0.0000
@<TRIPOS>BOND
     1    1    2 ar
     2    1    4 ar
     3    2    6 ar
     4    3    5 ar
     5    3    8 ar
     6    4   10 ar
     7    5    9 ar
     8    6   12 ar
     9    7    9 ar
    10    7   11 ar
    11    8   11 ar
    12    8   17 1
    13    9   19 1
    14   10   12 ar
    15   10   19 1
    16   11   20 1
    17   12   24 1
    18   13   15 1
    19   13   17 1
    20   13   20 2
    21   14   18 1
    22   14   22 1
    23   14   23 2
    24   15   21 1
    25   16   17 1
    26   16   18 1
    27   18   21 1
    28    1   25 1
    29    2   26 1
    30    3   27 1
    31    4   28 1
    32    5   29 1
    33    6   30 1
    34    7   31 1
    35   15   32 1
    36   15   33 1
    37   16   34 1
    38   16   35 1
    39   17   36 1
    40   18   37 1
    41   19   38 1
    42   19   39 1
    43   21   40 1
@<TRIPOS>MOLECULE
ligand6
   40    43     0     0     0
SMALL
NO_CHARGES

@<TRIPOS>ATOM
      1 C1          0.4835    5.8867   -4.6068 C.ar      1 <0>         0.0000
      2 C2          0.6293    2.2941    0.5615 C.ar      1 <0>         0.0000
      3 C3          0.0596    5.7086   -3.2899 C.ar      1 <0>         0.0000
      4 C4          0.1350    3.4508   -0.0447 C.ar      1 <0>         0.0000
      5 C5         -0.1425    5.1912   -5.6412 C.ar      1 <0>         0.0000
      6 C6         -1.5457    2.1643   -1.2544 C.ar      1 <0>         0.0000
      7 C7         -1.6163    4.1391   -4.0418 C.ar      1 <0>         0.0000
      8 C8          0.0257    1.0927    0.2446 C.ar      1 <0>         0.0000
      9 C9         -0.9434    3.3868   -0.9444 C.ar      1 <0>         0.0000
     10 C10        -0.9903    4.8347   -3.0074 C.ar      1 <0>         0.0000
     11 C11        -1.0512    1.0215   -0.6500 C.ar      1 <0>         0.0000
     12 C12        -1.1924    4.3174   -5.3587 C.ar      1 <0>         0.0000
     13 C13        -0.7316   -1.0388   -0.0950 C.2       1 <0>         0.0000
     14 C14         1.5603   -2.9605    1.8403 C.2       1 <0>         0.0000
     15 C15        -0.7705   -2.5267   -0.0156 C.3       1 <0>         0.0000
     16 C16         1.6654   -0.8751    0.3879 C.3       1 <0>         0.0000
     17 C17         0.3012   -0.2884    0.7320 C.3       1 <0>         0.0000
     18 C18         1.6579   -2.4082    0.4295 C.3       1 <0>         0.0000
     19 C19        -1.4493    4.6408   -1.5768 C.3       1 <0>         0.0000
     20 N1         -1.5004   -0.2999   -0.8439 N.2       1 <0>         0.0000
     21 N2          0.5678   -3.0126   -0.3478 N.3       1 <0>         0.0000
     22 O1          0.9933   -4.0836    1.9415 O.co2     1 <0>         0.0000
     23 O2          2.0611   -2.2219    2.7341 O.co2     1 <0>         0.0000
     24 Cl1        -1.9637    3.4586   -6.6352 Cl        1 <0>         0.0000
     25 H1          1.3012    6.5672   -4.8263 H         1 <0>         0.0000
     26 H2          1.4573    2.3437    1.2595 H         1 <0>         0.0000
     27 H3          0.5533    6.2546   -2.4902 H         1 <0>         0.0000
     28 H4          0.5934    4.4091    0.1881 H         1 <0>         0.0000
     29 H5          0.1986    5.3398   -6.6628 H         1 <0>         0.0000
     30 H6         -2.3749    2.1093   -1.9525 H         1 <0>         0.0000
     31 H7         -2.4348    3.4594   -3.8164 H         1 <0>         0.0000
     32 H8         -1.0755   -2.8303    0.9908 H         1 <0>         0.0000
     33 H9         -1.4991   -2.9162   -0.7327 H         1 <0>         0.0000
     34 H10         1.9667   -0.5583   -0.6205 H         1 <0>         0.0000
     35 H11         2.4198   -0.4751    1.0766 H         1 <0>         0.0000
     36 H12         0.0509   -0.3915    1.7928 H         1 <0>         0.0000
     37 H13         2.6059   -2.7762    0.0205 H         1 <0>         0.0000
     38 H14        -2.5524    4.6691   -1.5480 H         1 <0>         0.0000
     39 H15        -1.1489    5.5210   -0.9824 H         1 <0>         0.0000
     40 H16         0.5980   -4.0284   -0.2681 H         1 <0>         0.0000
@<TRIPOS>BOND
     1    1    3 ar
     2    1    5 ar
     3    2    4 ar
     4    2    8 ar
     5    3   10 ar
     6    4    9 ar
     7    5   12 ar
     8    6    9 ar
     9    6   11 ar
    10    7   10 ar
    11    7   12 ar
    12    8   11 ar
    13    8   17 1
    14    9   19 1
    15   10   19 1
    16   11   20 1
    17   12   24 1
    18   13   15 1
    19   13   17 1
    20   13   20 2
    21   14   18 1
    22   14   22 1
    23   14   23 2
    24   15   21 1
    25   16   17 1
    26   16   18 1
    27   18   21 1
    28    1   25 1
    29    2   26 1
    30    3   27 1
    31    4   28 1
    32    5   29 1
    33    6   30 1
    34    7   31 1
    35   15   32 1
    36   15   33 1
    37   16   34 1
    38   16   35 1
    39   17   36 1
    40   18   37 1
    41   19   38 1
    42   19   39 1
    43   21   40 1
@<TRIPOS>MOLECULE
ligand7
   40    43     0     0     0
SMALL
NO_CHARGES

@<TRIPOS>ATOM
      1 C1          0.6293    2.2941    0.5615 C.ar      1 <0>         0.0000
      2 C2          0.1350    3.4508   -0.0447 C.ar      1 <0>         0.0000
      3 C3         -3.9518    4.5926   -1.2761 C.ar      1 <0>         0.0000
      4 C4         -2.6703    6.2389   -0.0577 C.ar      1 <0>         0.0000
      5 C5         -5.1255    5.0821   -0.7031 C.ar      1 <0>         0.0000
      6 C6         -3.8441    6.7284    0.5154 C.ar      1 <0>         0.0000
      7 C7         -1.5457    2.1643   -1.2544 C.ar      1 <0>         0.0000
      8 C8          0.0257    1.0927    0.2446 C.ar      1 <0>         0.0000
      9 C9         -2.7242    5.1710   -0.9534 C.ar      1 <0>         0.0000
     10 C10        -0.9434    3.3868   -0.9444 C.ar      1 <0>         0.0000
     11 C11        -1.0512    1.0215   -0.6500 C.ar      1 <0>         0.0000
     12 C12        -5.0717    6.1500    0.1927 C.ar      1 <0>         0.0000
     13 C13        -0.7316   -1.0388   -0.0950 C.2       1 <0>         0.0000
     14 C14         1.5603   -2.9605    1.8403 C.2       1 <0>         0.0000
     15 C15        -0.7705   -2.5267   -0.0156 C.3       1 <0>         0.0000
     16 C16         1.6654   -0.8751    0.3879 C.3       1 <0>         0.0000
     17 C17         0.3012   -0.2884    0.7320 C.3       1 <0>         0.0000
     18 C18         1.6579   -2.4082    0.4295 C.3       1 <0>         0.0000
     19 C19        -1.4493    4.6408   -1.5768 C.3       1 <0>         0.0000
     20 N1         -1.5004   -0.2999   -0.8439 N.2       1 <0>         0.0000
     21 N2          0.5678   -3.0126   -0.3478 N.3       1 <0>         0.0000
     22 O1          0.9933   -4.0836    1.9415 O.co2     1 <0>         0.0000
     23 O2          2.0611   -2.2219    2.7341 O.co2     1 <0>         0.0000
     24 Cl1        -6.5197    6.7537    0.8993 Cl        1 <0>         0.0000
     25 H1          1.4573    2.3437    1.2595 H         1 <0>         0.0000
     26 H2          0.5934    4.4091    0.1881 H         1 <0>         0.0000
     27 H3         -4.0020    3.7601   -1.9730 H         1 <0>         0.0000
     28 H4         -1.7179    6.6953    0.1988 H         1 <0>         0.0000
     29 H5         -6.0748    4.6216   -0.9642 H         1 <0>         0.0000
     30 H6         -3.7867    7.5610    1.2118 H         1 <0>         0.0000
     31 H7         -2.3749    2.1093   -1.9525 H         1 <0>         0.0000
     32 H8         -1.0755   -2.8303    0.9908 H         1 <0>         0.0000
     33 H9         -1.4991   -2.9162   -0.7327 H         1 <0>         0.0000
     34 H10         1.9667   -0.5583   -0.6205 H         1 <0>         0.0000
     35 H11         2.4198   -0.4751    1.0766 H         1 <0>         0.0000
     36 H12         0.0509   -0.3915    1.7928 H         1 <0>         0.0000
     37 H13         2.6059   -2.7762    0.0205 H         1 <0>         0.0000
     38 H14        -1.6162    4.4875   -2.6571 H         1 <0>         0.0000
     39 H15        -0.6778    5.4293   -1.5400 H         1 <0>         0.0000
     40 H16         0.5980   -4.0284   -0.2681 H         1 <0>         0.0000
@<TRIPOS>BOND
     1    1    2 ar
     2    1    8 ar
     3    2   10 ar
     4    3    5 ar
     5    3    9 ar
     6    4    6 ar
     7    4    9 ar
     8    5   12 ar
     9    6   12 ar
    10    7   10 ar
    11    7   11 ar
    12    8   11 ar
    13    8   17 1
    14    9   19 1
    15   10   19 1
    16   11   20 1
    17   12   24 1
    18   13   15 1
    19   13   17 1
    20   13   20 2
    21   14   18 1
    22   14   22 1
    23   14   23 2
    24   15   21 1
    25   16   17 1
    26   16   18 1
    27   18   21 1
    28    1   25 1
    29    2   26 1
    30    3   27 1
    31    4   28 1
    32    5   29 1
    33    6   30 1
    34    7   31 1
    35   15   32 1
    36   15   33 1
    37   16   34 1
    38   16   35 1
    39   17   36 1
    40   18   37 1
    41   19   38 1
    42   19   39 1
    43   21   40 1
@<TRIPOS>MOLECULE
ligand8
   40    43     0     0     0
SMALL
NO_CHARGES

@<TRIPOS>ATOM
      1 C1         -2.4766    7.2363    0.9832 C.ar      1 <0>         0.0000
      2 C2         -3.8594    7.0628    1.0405 C.ar      1 <0>         0.0000
      3 C3          0.6293    2.2941    0.5615 C.ar      1 <0>         0.0000
      4 C4         -1.7090    6.4437    0.1299 C.ar      1 <0>         0.0000
      5 C5          0.1350    3.4508   -0.0447 C.ar      1 <0>         0.0000
      6 C6         -4.4746    6.0965    0.2446 C.ar      1 <0>         0.0000
      7 C7         -1.5457    2.1643   -1.2544 C.ar      1 <0>         0.0000
      8 C8          0.0257    1.0927    0.2446 C.ar      1 <0>         0.0000
      9 C9         -0.9434    3.3868   -0.9444 C.ar      1 <0>         0.0000
     10 C10        -2.3242    5.4774   -0.6660 C.ar      1 <0>         0.0000
     11 C11        -1.0512    1.0215   -0.6500 C.ar      1 <0>         0.0000
     12 C12        -3.7070    5.3038   -0.6087 C.ar      1 <0>         0.0000
     13 C13        -0.7316   -1.0388   -0.0950 C.2       1 <0>         0.0000
     14 C14         1.5603   -2.9605    1.8403 C.2       1 <0>         0.0000
     15 C15        -0.7705   -2.5267   -0.0156 C.3       1 <0>         0.0000
     16 C16         1.6654   -0.8751    0.3879 C.3       1 <0>         0.0000
     17 C17         0.3012   -0.2884    0.7320 C.3       1 <0>         0.0000
     18 C18         1.6579   -2.4082    0.4295 C.3       1 <0>         0.0000
     19 C19        -1.4493    4.6408   -1.5768 C.3       1 <0>         0.0000
     20 N1         -1.5004   -0.2999   -0.8439 N.2       1 <0>         0.0000
     21 N2          0.5678   -3.0126   -0.3478 N.3       1 <0>         0.0000
     22 O1          0.9933   -4.0836    1.9415 O.co2     1 <0>         0.0000
     23 O2          2.0611   -2.2219    2.7341 O.co2     1 <0>         0.0000
     24 Br1        -4.5885    4.0015   -1.6687 Br        1 <0>         0.0000
     25 H1         -1.9980    7.9886    1.6029 H         1 <0>         0.0000
     26 H2         -4.4567    7.6802    1.7049 H         1 <0>         0.0000
     27 H3          1.4573    2.3437    1.2595 H         1 <0>         0.0000
     28 H4         -0.6324    6.5876    0.0934 H         1 <0>         0.0000
     29 H5          0.5934    4.4091    0.1881 H         1 <0>         0.0000
     30 H6         -5.5536    5.9759    0.3031 H         1 <0>         0.0000
     31 H7         -2.3749    2.1093   -1.9525 H         1 <0>         0.0000
     32 H8         -1.0755   -2.8303    0.9908 H         1 <0>         0.0000
     33 H9         -1.4991   -2.9162   -0.7327 H         1 <0>         0.0000
     34 H10         1.9667   -0.5583   -0.6205 H         1 <0>         0.0000
     35 H11         2.4198   -0.4751    1.0766 H         1 <0>         0.0000
     36 H12         0.0509   -0.3915    1.7928 H         1 <0>         0.0000
     37 H13         2.6059   -2.7762    0.0205 H         1 <0>         0.0000
     38 H14        -0.6075    5.2600   -1.9322 H         1 <0>         0.0000
     39 H15        -2.0112    4.4086   -2.4981 H         1 <0>         0.0000
     40 H16         0.5980   -4.0284   -0.2681 H         1 <0>         0.0000
@<TRIPOS>BOND
     1    1    2 ar
     2    1    4 ar
     3    2    6 ar
     4    3    5 ar
     5    3    8 ar
     6    4   10 ar
     7    5    9 ar
     8    6   12 ar
     9    7    9 ar
    10    7   11 ar
    11    8   11 ar
    12    8   17 1
    13    9   19 1
    14   10   12 ar
    15   10   19 1
    16   11   20 1
    17   12   24 1
    18   13   15 1
    19   13   17 1
    20   13   20 2
    21   14   18 1
    22   14   22 1
    23   14   23 2
    24   15   21 1
    25   16   17 1
    26   16   18 1
    27   18   21 1
    28    1   25 1
    29    2   26 1
    30    3   27 1
    31    4   28 1
    32    5   29 1
    33    6   30 1
    34    7   31 1
    35   15   32 1
    36   15   33 1
    37   16   34 1
    38   16   35 1
    39   17   36 1
    40   18   37 1
    41   19   38 1
    42   19   39 1
    43   21   40 1
@<TRIPOS>MOLECULE
ligand9
   40    43     0     0     0
SMALL
NO_CHARGES

@<TRIPOS>ATOM
      1 C1          0.4828    5.8875   -4.6070 C.ar      1 <0>         0.0000
      2 C2          0.6293    2.2941    0.5615 C.ar      1 <0>         0.0000
      3 C3          0.0596    5.7085   -3.2900 C.ar      1 <0>         0.0000
      4 C4          0.1350    3.4508   -0.0447 C.ar      1 <0>         0.0000
      5 C5         -0.1440    5.1927   -5.6415 C.ar      1 <0>         0.0000
      6 C6         -1.5457    2.1643   -1.2544 C.ar      1 <0>         0.0000
      7 C7         -1.6171    4.1399   -4.0419 C.ar      1 <0>         0.0000
      8 C8          0.0257    1.0927    0.2446 C.ar      1 <0>         0.0000
      9 C9         -0.9434    3.3868   -0.9444 C.ar      1 <0>         0.0000
     10 C10        -0.9903    4.8347   -3.0074 C.ar      1 <0>         0.0000
     11 C11        -1.0512    1.0215   -0.6500 C.ar      1 <0>         0.0000
     12 C12        -1.1939    4.3189   -5.3589 C.ar      1 <0>         0.0000
     13 C13        -0.7316   -1.0388   -0.0950 C.2       1 <0>         0.0000
     14 C14         1.5603   -2.9605    1.8403 C.2       1 <0>         0.0000
     15 C15        -0.7705   -2.5267   -0.0156 C.3       1 <0>         0.0000
     16 C16         1.6654   -0.8751    0.3879 C.3       1 <0>         0.0000
     17 C17         0.3012   -0.2884    0.7320 C.3       1 <0>         0.0000
     18 C18         1.6579   -2.4082    0.4295 C.3       1 <0>         0.0000
     19 C19        -1.4493    4.6408   -1.5768 C.3       1 <0>         0.0000
     20 N1         -1.5004   -0.2999   -0.8439 N.2       1 <0>         0.0000
     21 N2          0.5678   -3.0126   -0.3478 N.3       1 <0>         0.0000
     22 O1          0.9933   -4.0836    1.9415 O.co2     1 <0>         0.0000
     23 O2          2.0611   -2.2219    2.7341 O.co2     1 <0>         0.0000
     24 Br1        -2.0427    3.3778   -6.7611 Br        1 <0>         0.0000
     25 H1          1.3003    6.5678   -4.8270 H         1 <0>         0.0000
     26 H2          1.4573    2.3437    1.2595 H         1 <0>         0.0000
     27 H3          0.5539    6.2541   -2.4906 H         1 <0>         0.0000
     28 H4          0.5934    4.4091    0.1881 H         1 <0>         0.0000
     29 H5          0.1979    5.3436   -6.6622 H         1 <0>         0.0000
     30 H6         -2.3749    2.1093   -1.9525 H         1 <0>         0.0000
     31 H7         -2.4351    3.4602   -3.8139 H         1 <0>         0.0000
     32 H8         -1.0755   -2.8303    0.9908 H         1 <0>         0.0000
     33 H9         -1.4991   -2.9162   -0.7327 H         1 <0>         0.0000
     34 H10         1.9667   -0.5583   -0.6205 H         1 <0>         0.0000
     35 H11         2.4198   -0.4751    1.0766 H         1 <0>         0.0000
     36 H12         0.0509   -0.3915    1.7928 H         1 <0>         0.0000
     37 H13         2.6059   -2.7762    0.0205 H         1 <0>         0.0000
     38 H14        -2.5524    4.6691   -1.5480 H         1 <0>         0.0000
     39 H15        -1.1489    5.5210   -0.9824 H         1 <0>         0.0000
     40 H16         0.5980   -4.0284   -0.2681 H         1 <0>         0.0000
@<TRIPOS>BOND
     1    1    3 ar
     2    1    5 ar
     3    2    4 ar
     4    2    8 ar
     5    3   10 ar
     6    4    9 ar
     7    5   12 ar
     8    6    9 ar
     9    6   11 ar
    10    7   10 ar
    11    7   12 ar
    12    8   11 ar
    13    8   17 1
    14    9   19 1
    15   10   19 1
    16   11   20 1
    17   12   24 1
    18   13   15 1
    19   13   17 1
    20   13   20 2
    21   14   18 1
    22   14   22 1
    23   14   23 2
    24   15   21 1
    25   16   17 1
    26   16   18 1
    27   18   21 1
    28    1   25 1
    29    2   26 1
    30    3   27 1
    31    4   28 1
    32    5   29 1
    33    6   30 1
    34    7   31 1
    35   15   32 1
    36   15   33 1
    37   16   34 1
    38   16   35 1
    39   17   36 1
    40   18   37 1
    41   19   38 1
    42   19   39 1
    43   21   40 1
@<TRIPOS>MOLECULE
ligand10
   40    43     0     0     0
SMALL
NO_CHARGES

@<TRIPOS>ATOM
      1 C1          0.6293    2.2941    0.5615 C.ar      1 <0>         0.0000
      2 C2          0.1350    3.4508   -0.0447 C.ar      1 <0>         0.0000
      3 C3         -3.9516    4.5923   -1.2764 C.ar      1 <0>         0.0000
      4 C4         -2.6706    6.2379   -0.0564 C.ar      1 <0>         0.0000
      5 C5         -5.1254    5.0804   -0.7024 C.ar      1 <0>         0.0000
      6 C6         -3.8445    6.7260    0.5176 C.ar      1 <0>         0.0000
      7 C7         -1.5457    2.1643   -1.2544 C.ar      1 <0>         0.0000
      8 C8          0.0257    1.0927    0.2446 C.ar      1 <0>         0.0000
      9 C9         -2.7242    5.1710   -0.9534 C.ar      1 <0>         0.0000
     10 C10        -0.9434    3.3868   -0.9444 C.ar      1 <0>         0.0000
     11 C11        -1.0512    1.0215   -0.6500 C.ar      1 <0>         0.0000
     12 C12        -5.0719    6.1473    0.1946 C.ar      1 <0>         0.0000
     13 C13        -0.7316   -1.0388   -0.0950 C.2       1 <0>         0.0000
     14 C14         1.5603   -2.9605    1.8403 C.2       1 <0>         0.0000
     15 C15        -0.7705   -2.5267   -0.0156 C.3       1 <0>         0.0000
     16 C16         1.6654   -0.8751    0.3879 C.3       1 <0>         0.0000
     17 C17         0.3012   -0.2884    0.7320 C.3       1 <0>         0.0000
     18 C18         1.6579   -2.4082    0.4295 C.3       1 <0>         0.0000
     19 C19        -1.4493    4.6408   -1.5768 C.3       1 <0>         0.0000
     20 N1         -1.5004   -0.2999   -0.8439 N.2       1 <0>         0.0000
     21 N2          0.5678   -3.0126   -0.3478 N.3       1 <0>         0.0000
     22 O1          0.9933   -4.0836    1.9415 O.co2     1 <0>         0.0000
     23 O2          2.0611   -2.2219    2.7341 O.co2     1 <0>         0.0000
     24 Br1        -6.6626    6.8077    0.9723 Br        1 <0>         0.0000
     25 H1          1.4573    2.3437    1.2595 H         1 <0>         0.0000
     26 H2          0.5934    4.4091    0.1881 H         1 <0>         0.0000
     27 H3         -4.0028    3.7608   -1.9744 H         1 <0>         0.0000
     28 H4         -1.7188    6.6944    0.2018 H         1 <0>         0.0000
     29 H5         -6.0735    4.6175   -0.9641 H         1 <0>         0.0000
     30 H6         -3.7856    7.5580    1.2144 H         1 <0>         0.0000
     31 H7         -2.3749    2.1093   -1.9525 H         1 <0>         0.0000
     32 H8         -1.0755   -2.8303    0.9908 H         1 <0>         0.0000
     33 H9         -1.4991   -2.9162   -0.7327 H         1 <0>         0.0000
     34 H10         1.9667   -0.5583   -0.6205 H         1 <0>         0.0000
     35 H11         2.4198   -0.4751    1.0766 H         1 <0>         0.0000
     36 H12         0.0509   -0.3915    1.7928 H         1 <0>         0.0000
     37 H13         2.6059   -2.7762    0.0205 H         1 <0>         0.0000
     38 H14        -1.6162    4.4875   -2.6571 H         1 <0>         0.0000
     39 H15        -0.6778    5.4293   -1.5400 H         1 <0>         0.0000
     40 H16         0.5980   -4.0284   -0.2681 H         1 <0>         0.0000
@<TRIPOS>BOND
     1    1    2 ar
     2    1    8 ar
     3    2   10 ar
     4    3    5 ar
     5    3    9 ar
     6    4    6 ar
     7    4    9 ar
     8    5   12 ar
     9    6   12 ar
    10    7   10 ar
    11    7   11 ar
    12    8   11 ar
    13    8   17 1
    14    9   19 1
    15   10   19 1
    16   11   20 1
    17   12   24 1
    18   13   15 1
    19   13   17 1
    20   13   20 2
    21   14   18 1
    22   14   22 1
    23   14   23 2
    24   15   21 1
    25   16   17 1
    26   16   18 1
    27   18   21 1
    28    1   25 1
    29    2   26 1
    30    3   27 1
    31    4   28 1
    32    5   29 1
    33    6   30 1
    34    7   31 1
    35   15   32 1
    36   15   33 1
    37   16   34 1
    38   16   35 1
    39   17   36 1
    40   18   37 1
    41   19   38 1
    42   19   39 1
    43   21   40 1
@<TRIPOS>MOLECULE
ligand11
   40    43     0     0     0
SMALL
NO_CHARGES

@<TRIPOS>ATOM
      1 C1          0.6293    2.2941    0.5615 C.ar      1 <0>         0.0000
      2 C2          0.1350    3.4508   -0.0447 C.ar      1 <0>         0.0000
      3 C3          0.0597    5.7086   -3.2897 C.ar      1 <0>         0.0000
      4 C4          0.4818    5.8892   -4.6068 C.ar      1 <0>         0.0000
      5 C5         -1.5457    2.1643   -1.2544 C.ar      1 <0>         0.0000
      6 C6         -1.6181    4.1415   -4.0423 C.ar      1 <0>         0.0000
      7 C7          0.0257    1.0927    0.2446 C.ar      1 <0>         0.0000
      8 C8         -0.9434    3.3868   -0.9444 C.ar      1 <0>         0.0000
      9 C9         -0.9903    4.8347   -3.0074 C.ar      1 <0>         0.0000
     10 C10        -1.0512    1.0215   -0.6500 C.ar      1 <0>         0.0000
     11 C11        -0.1460    5.1960   -5.6417 C.ar      1 <0>         0.0000
     12 C12        -1.1960    4.3221   -5.3594 C.ar      1 <0>         0.0000
     13 C13        -0.7316   -1.0388   -0.0950 C.2       1 <0>         0.0000
     14 C14         1.5603   -2.9605    1.8403 C.2       1 <0>         0.0000
     15 C15        -0.7705   -2.5267   -0.0156 C.3       1 <0>         0.0000
     16 C16         1.6654   -0.8751    0.3879 C.3       1 <0>         0.0000
     17 C17         0.3012   -0.2884    0.7320 C.3       1 <0>         0.0000
     18 C18         1.6579   -2.4082    0.4295 C.3       1 <0>         0.0000
     19 C19        -1.4493    4.6408   -1.5768 C.3       1 <0>         0.0000
     20 N1         -1.5004   -0.2999   -0.8439 N.2       1 <0>         0.0000
     21 N2          0.5678   -3.0126   -0.3478 N.3       1 <0>         0.0000
     22 O1          0.9933   -4.0836    1.9415 O.co2     1 <0>         0.0000
     23 O2          2.0611   -2.2219    2.7341 O.co2     1 <0>         0.0000
     24 Br1         0.4983    5.5053   -7.4029 Br        1 <0>         0.0000
     25 Br2        -2.1123    3.3402   -6.7045 Br        1 <0>         0.0000
     26 H1          1.4573    2.3437    1.2595 H         1 <0>         0.0000
     27 H2          0.5934    4.4091    0.1881 H         1 <0>         0.0000
     28 H3          0.5558    6.2512   -2.4892 H         1 <0>         0.0000
     29 H4          1.3028    6.5740   -4.8045 H         1 <0>         0.0000
     30 H5         -2.3749    2.1093   -1.9525 H         1 <0>         0.0000
     31 H6         -2.4368    3.4641   -3.8096 H         1 <0>         0.0000
     32 H7         -1.0755   -2.8303    0.9908 H         1 <0>         0.0000
     33 H8         -1.4991   -2.9162   -0.7327 H         1 <0>         0.0000
     34 H9          1.9667   -0.5583   -0.6205 H         1 <0>         0.0000
     35 H10         2.4198   -0.4751    1.0766 H         1 <0>         0.0000
     36 H11         0.0509   -0.3915    1.7928 H         1 <0>         0.0000
     37 H12         2.6059   -2.7762    0.0205 H         1 <0>         0.0000
     38 H13        -2.5524    4.6691   -1.5480 H         1 <0>         0.0000
     39 H14        -1.1489    5.5210   -0.9824 H         1 <0>         0.0000
     40 H15         0.5980   -4.0284   -0.2681 H         1 <0>         0.0000
@<TRIPOS>BOND
     1    1    2 ar
     2    1    7 ar
     3    2    8 ar
     4    3    4 ar
     5    3    9 ar
     6    4   11 ar
     7    5    8 ar
     8    5   10 ar
     9    6    9 ar
    10    6   12 ar
    11    7   10 ar
    12    7   17 1
    13    8   19 1
    14    9   19 1
    15   10   20 1
    16   11   12 ar
    17   11   24 1
    18   12   25 1
    19   13   15 1
    20   13   17 1
    21   13   20 2
    22   14   18 1
    23   14   22 1
    24   14   23 2
    25   15   21 1
    26   16   17 1
    27   16   18 1
    28   18   21 1
    29    1   26 1
    30    2   27 1
    31    3   28 1
    32    4   29 1
    33    5   30 1
    34    6   31 1
    35   15   32 1
    36   15   33 1
    37   16   34 1
    38   16   35 1
    39   17   36 1
    40   18   37 1
    41   19   38 1
    42   19   39 1
    43   21   40 1
@<TRIPOS>MOLECULE
ligand12
   40    43     0     0     0
SMALL
NO_CHARGES

@<TRIPOS>ATOM
      1 C1          0.6293    2.2941    0.5615 C.ar      1 <0>         0.0000
      2 C2          0.1350    3.4508   -0.0447 C.ar      1 <0>         0.0000
      3 C3         -1.7089    6.4437    0.1299 C.ar      1 <0>         0.0000
      4 C4         -2.4763    7.2358    0.9838 C.ar      1 <0>         0.0000
      5 C5         -1.5457    2.1643   -1.2544 C.ar      1 <0>         0.0000
      6 C6         -4.4743    6.0953    0.2461 C.ar      1 <0>         0.0000
      7 C7          0.0257    1.0927    0.2446 C.ar      1 <0>         0.0000
      8 C8         -0.9434    3.3868   -0.9444 C.ar      1 <0>         0.0000
      9 C9         -2.3242    5.4774   -0.6660 C.ar      1 <0>         0.0000
     10 C10        -1.0512    1.0215   -0.6500 C.ar      1 <0>         0.0000
     11 C11        -3.8590    7.0616    1.0420 C.ar      1 <0>         0.0000
     12 C12        -3.7069    5.3032   -0.6079 C.ar      1 <0>         0.0000
     13 C13        -0.7316   -1.0388   -0.0950 C.2       1 <0>         0.0000
     14 C14         1.5603   -2.9605    1.8403 C.2       1 <0>         0.0000
     15 C15        -0.7705   -2.5267   -0.0156 C.3       1 <0>         0.0000
     16 C16         1.6654   -0.8751    0.3879 C.3       1 <0>         0.0000
     17 C17         0.3012   -0.2884    0.7320 C.3       1 <0>         0.0000
     18 C18         1.6579   -2.4082    0.4295 C.3       1 <0>         0.0000
     19 C19        -1.4493    4.6408   -1.5768 C.3       1 <0>         0.0000
     20 N1         -1.5004   -0.2999   -0.8439 N.2       1 <0>         0.0000
     21 N2          0.5678   -3.0126   -0.3478 N.3       1 <0>         0.0000
     22 O1          0.9933   -4.0836    1.9415 O.co2     1 <0>         0.0000
     23 O2          2.0611   -2.2219    2.7341 O.co2     1 <0>         0.0000
     24 Br1        -4.8978    8.1356    2.1989 Br        1 <0>         0.0000
     25 Br2        -4.5881    4.0030   -1.6713 Br        1 <0>         0.0000
     26 H1          1.4573    2.3437    1.2595 H         1 <0>         0.0000
     27 H2          0.5934    4.4091    0.1881 H         1 <0>         0.0000
     28 H3         -0.6323    6.5877    0.0925 H         1 <0>         0.0000
     29 H4         -1.9813    7.9845    1.5971 H         1 <0>         0.0000
     30 H5         -2.3749    2.1093   -1.9525 H         1 <0>         0.0000
     31 H6         -5.5530    5.9610    0.2931 H         1 <0>         0.0000
     32 H7         -1.0755   -2.8303    0.9908 H         1 <0>         0.0000
     33 H8         -1.4991   -2.9162   -0.7327 H         1 <0>         0.0000
     34 H9          1.9667   -0.5583   -0.6205 H         1 <0>         0.0000
     35 H10         2.4198   -0.4751    1.0766 H         1 <0>         0.0000
     36 H11         0.0509   -0.3915    1.7928 H         1 <0>         0.0000
     37 H12         2.6059   -2.7762    0.0205 H         1 <0>         0.0000
     38 H13        -0.6075    5.2600   -1.9322 H         1 <0>         0.0000
     39 H14        -2.0112    4.4086   -2.4981 H         1 <0>         0.0000
     40 H15         0.5980   -4.0284   -0.2681 H         1 <0>         0.0000
@<TRIPOS>BOND
     1    1    2 ar
     2    1    7 ar
     3    2    8 ar
     4    3    4 ar
     5    3    9 ar
     6    4   11 ar
     7    5    8 ar
     8    5   10 ar
     9    6   11 ar
    10    6   12 ar
    11    7   10 ar
    12    7   17 1
    13    8   19 1
    14    9   12 ar
    15    9   19 1
    16   10   20 1
    17   11   24 1
    18   12   25 1
    19   13   15 1
    20   13   17 1
    21   13   20 2
    22   14   18 1
    23   14   22 1
    24   14   23 2
    25   15   21 1
    26   16   17 1
    27   16   18 1
    28   18   21 1
    29    1   26 1
    30    2   27 1
    31    3   28 1
    32    4   29 1
    33    5   30 1
    34    6   31 1
    35   15   32 1
    36   15   33 1
    37   16   34 1
    38   16   35 1
    39   17   36 1
    40   18   37 1
    41   19   38 1
    42   19   39 1
    43   21   40 1
@<TRIPOS>MOLECULE
ligand13
   40    43     0     0     0
SMALL
NO_CHARGES

@<TRIPOS>ATOM
      1 C1          0.6293    2.2941    0.5615 C.ar      1 <0>         0.0000
      2 C2          0.1350    3.4508   -0.0447 C.ar      1 <0>         0.0000
      3 C3          0.0597    5.7087   -3.2893 C.ar      1 <0>         0.0000
      4 C4          0.4832    5.8884   -4.6060 C.ar      1 <0>         0.0000
      5 C5         -1.5457    2.1643   -1.2544 C.ar      1 <0>         0.0000
      6 C6         -1.6168    4.1406   -4.0424 C.ar      1 <0>         0.0000
      7 C7          0.0257    1.0927    0.2446 C.ar      1 <0>         0.0000
      8 C8         -0.9434    3.3868   -0.9444 C.ar      1 <0>         0.0000
      9 C9         -0.9903    4.8347   -3.0074 C.ar      1 <0>         0.0000
     10 C10        -1.0512    1.0215   -0.6500 C.ar      1 <0>         0.0000
     11 C11        -0.1433    5.1943   -5.6411 C.ar      1 <0>         0.0000
     12 C12        -1.1933    4.3203   -5.3593 C.ar      1 <0>         0.0000
     13 C13        -0.7316   -1.0388   -0.0950 C.2       1 <0>         0.0000
     14 C14         1.5603   -2.9605    1.8403 C.2       1 <0>         0.0000
     15 C15        -0.7705   -2.5267   -0.0156 C.3       1 <0>         0.0000
     16 C16         1.6654   -0.8751    0.3879 C.3       1 <0>         0.0000
     17 C17         0.3012   -0.2884    0.7320 C.3       1 <0>         0.0000
     18 C18         1.6579   -2.4082    0.4295 C.3       1 <0>         0.0000
     19 C19        -1.4493    4.6408   -1.5768 C.3       1 <0>         0.0000
     20 N1         -1.5004   -0.2999   -0.8439 N.2       1 <0>         0.0000
     21 N2          0.5678   -3.0126   -0.3478 N.3       1 <0>         0.0000
     22 O1          0.9933   -4.0836    1.9415 O.co2     1 <0>         0.0000
     23 O2          2.0611   -2.2219    2.7341 O.co2     1 <0>         0.0000
     24 Cl1         0.4269    5.4605   -7.2513 Cl        1 <0>         0.0000
     25 Cl2        -2.0092    3.4319   -6.5979 Cl        1 <0>         0.0000
     26 H1          1.4573    2.3437    1.2595 H         1 <0>         0.0000
     27 H2          0.5934    4.4091    0.1881 H         1 <0>         0.0000
     28 H3          0.5531    6.2544   -2.4890 H         1 <0>         0.0000
     29 H4          1.3030    6.5737   -4.8073 H         1 <0>         0.0000
     30 H5         -2.3749    2.1093   -1.9525 H         1 <0>         0.0000
     31 H6         -2.4347    3.4609   -3.8140 H         1 <0>         0.0000
     32 H7         -1.0755   -2.8303    0.9908 H         1 <0>         0.0000
     33 H8         -1.4991   -2.9162   -0.7327 H         1 <0>         0.0000
     34 H9          1.9667   -0.5583   -0.6205 H         1 <0>         0.0000
     35 H10         2.4198   -0.4751    1.0766 H         1 <0>         0.0000
     36 H11         0.0509   -0.3915    1.7928 H         1 <0>         0.0000
     37 H12         2.6059   -2.7762    0.0205 H         1 <0>         0.0000
     38 H13        -2.5524    4.6691   -1.5480 H         1 <0>         0.0000
     39 H14        -1.1489    5.5210   -0.9824 H         1 <0>         0.0000
     40 H15         0.5980   -4.0284   -0.2681 H         1 <0>         0.0000
@<TRIPOS>BOND
     1    1    2 ar
     2    1    7 ar
     3    2    8 ar
     4    3    4 ar
     5    3    9 ar
     6    4   11 ar
     7    5    8 ar
     8    5   10 ar
     9    6    9 ar
    10    6   12 ar
    11    7   10 ar
    12    7   17 1
    13    8   19 1
    14    9   19 1
    15   10   20 1
    16   11   12 ar
    17   11   24 1
    18   12   25 1
    19   13   15 1
    20   13   17 1
    21   13   20 2
    22   14   18 1
    23   14   22 1
    24   14   23 2
    25   15   21 1
    26   16   17 1
    27   16   18 1
    28   18   21 1
    29    1   26 1
    30    2   27 1
    31    3   28 1
    32    4   29 1
    33    5   30 1
    34    6   31 1
    35   15   32 1
    36   15   33 1
    37   16   34 1
    38   16   35 1
    39   17   36 1
    40   18   37 1
    41   19   38 1
    42   19   39 1
    43   21   40 1
@<TRIPOS>MOLECULE
ligand14
   40    43     0     0     0
SMALL
NO_CHARGES

@<TRIPOS>ATOM
      1 C1          0.6293    2.2941    0.5615 C.ar      1 <0>         0.0000
      2 C2          0.1350    3.4508   -0.0447 C.ar      1 <0>         0.0000
      3 C3         -1.7145    6.4453    0.1323 C.ar      1 <0>         0.0000
      4 C4         -2.4876    7.2367    0.9818 C.ar      1 <0>         0.0000
      5 C5         -1.5457    2.1643   -1.2544 C.ar      1 <0>         0.0000
      6 C6         -4.4799    6.0922    0.2349 C.ar      1 <0>         0.0000
      7 C7          0.0257    1.0927    0.2446 C.ar      1 <0>         0.0000
      8 C8         -0.9434    3.3868   -0.9444 C.ar      1 <0>         0.0000
      9 C9         -2.3242    5.4774   -0.6660 C.ar      1 <0>         0.0000
     10 C10        -1.0512    1.0215   -0.6500 C.ar      1 <0>         0.0000
     11 C11        -3.8703    7.0601    1.0331 C.ar      1 <0>         0.0000
     12 C12        -3.7069    5.3008   -0.6147 C.ar      1 <0>         0.0000
     13 C13        -0.7316   -1.0388   -0.0950 C.2       1 <0>         0.0000
     14 C14         1.5603   -2.9605    1.8403 C.2       1 <0>         0.0000
     15 C15        -0.7705   -2.5267   -0.0156 C.3       1 <0>         0.0000
     16 C16         1.6654   -0.8751    0.3879 C.3       1 <0>         0.0000
     17 C17         0.3012   -0.2884    0.7320 C.3       1 <0>         0.0000
     18 C18         1.6579   -2.4082    0.4295 C.3       1 <0>         0.0000
     19 C19        -1.4493    4.6408   -1.5768 C.3       1 <0>         0.0000
     20 N1         -1.5004   -0.2999   -0.8439 N.2       1 <0>         0.0000
     21 N2          0.5678   -3.0126   -0.3478 N.3       1 <0>         0.0000
     22 O1          0.9933   -4.0836    1.9415 O.co2     1 <0>         0.0000
     23 O2          2.0611   -2.2219    2.7341 O.co2     1 <0>         0.0000
     24 Cl1        -4.8236    8.0355    2.0827 Cl        1 <0>         0.0000
     25 Cl2        -4.4964    4.1144   -1.5887 Cl        1 <0>         0.0000
     26 H1          1.4573    2.3437    1.2595 H         1 <0>         0.0000
     27 H2          0.5934    4.4091    0.1881 H         1 <0>         0.0000
     28 H3         -0.6380    6.5923    0.0985 H         1 <0>         0.0000
     29 H4         -1.9990    7.9865    1.5987 H         1 <0>         0.0000
     30 H5         -2.3749    2.1093   -1.9525 H         1 <0>         0.0000
     31 H6         -5.5587    5.9563    0.2756 H         1 <0>         0.0000
     32 H7         -1.0755   -2.8303    0.9908 H         1 <0>         0.0000
     33 H8         -1.4991   -2.9162   -0.7327 H         1 <0>         0.0000
     34 H9          1.9667   -0.5583   -0.6205 H         1 <0>         0.0000
     35 H10         2.4198   -0.4751    1.0766 H         1 <0>         0.0000
     36 H11         0.0509   -0.3915    1.7928 H         1 <0>         0.0000
     37 H12         2.6059   -2.7762    0.0205 H         1 <0>         0.0000
     38 H13        -0.6075    5.2600   -1.9322 H         1 <0>         0.0000
     39 H14        -2.0112    4.4086   -2.4981 H         1 <0>         0.0000
     40 H15         0.5980   -4.0284   -0.2681 H         1 <0>         0.0000
@<TRIPOS>BOND
     1    1    2 ar
     2    1    7 ar
     3    2    8 ar
     4    3    4 ar
     5    3    9 ar
     6    4   11 ar
     7    5    8 ar
     8    5   10 ar
     9    6   11 ar
    10    6   12 ar
    11    7   10 ar
    12    7   17 1
    13    8   19 1
    14    9   12 ar
    15    9   19 1
    16   10   20 1
    17   11   24 1
    18   12   25 1
    19   13   15 1
    20   13   17 1
    21   13   20 2
    22   14   18 1
    23   14   22 1
    24   14   23 2
    25   15   21 1
    26   16   17 1
    27   16   18 1
    28   18   21 1
    29    1   26 1
    30    2   27 1
    31    3   28 1
    32    4   29 1
    33    5   30 1
    34    6   31 1
    35   15   32 1
    36   15   33 1
    37   16   34 1
    38   16   35 1
    39   17   36 1
    40   18   37 1
    41   19   38 1
    42   19   39 1
    43   21   40 1
@<TRIPOS>MOLECULE
ligand15
   39    42     0     0     0
SMALL
NO_CHARGES

@<TRIPOS>ATOM
      1 C1          0.6293    2.2941    0.5615 C.ar      1 <0>         0.0000
      2 C2          0.1350    3.4508   -0.0447 C.ar      1 <0>         0.0000
      3 C3         -1.6135    4.1433   -4.0403 C.ar      1 <0>         0.0000
      4 C4          0.0555    5.7055   -3.2929 C.ar      1 <0>         0.0000
      5 C5         -1.5457    2.1643   -1.2544 C.ar      1 <0>         0.0000
      6 C6         -1.1571    4.3561   -5.3311 C.ar      1 <0>         0.0000
      7 C7          0.4373    5.8481   -4.6172 C.ar      1 <0>         0.0000
      8 C8          0.0257    1.0927    0.2446 C.ar      1 <0>         0.0000
      9 C9         -0.9434    3.3868   -0.9444 C.ar      1 <0>         0.0000
     10 C10        -0.9903    4.8347   -3.0074 C.ar      1 <0>         0.0000
     11 C11        -1.0512    1.0215   -0.6500 C.ar      1 <0>         0.0000
     12 C12        -0.7316   -1.0388   -0.0950 C.2       1 <0>         0.0000
     13 C13         1.5603   -2.9605    1.8403 C.2       1 <0>         0.0000
     14 C14        -0.7705   -2.5267   -0.0156 C.3       1 <0>         0.0000
     15 C15         1.6654   -0.8751    0.3879 C.3       1 <0>         0.0000
     16 C16         0.3012   -0.2884    0.7320 C.3       1 <0>         0.0000
     17 C17         1.6579   -2.4082    0.4295 C.3       1 <0>         0.0000
     18 C18        -1.4493    4.6408   -1.5768 C.3       1 <0>         0.0000
     19 N1         -0.1441    5.1936   -5.6473 N.ar      1 <0>         0.0000
     20 N2         -1.5004   -0.2999   -0.8439 N.2       1 <0>         0.0000
     21 N3          0.5678   -3.0126   -0.3478 N.3       1 <0>         0.0000
     22 O1          0.9933   -4.0836    1.9415 O.co2     1 <0>         0.0000
     23 O2          2.0611   -2.2219    2.7341 O.co2     1 <0>         0.0000
     24 H1          1.4573    2.3437    1.2595 H         1 <0>         0.0000
     25 H2          0.5934    4.4091    0.1881 H         1 <0>         0.0000
     26 H3         -2.4325    3.4577   -3.8509 H         1 <0>         0.0000
     27 H4          0.5614    6.2586   -2.5091 H         1 <0>         0.0000
     28 H5         -2.3749    2.1093   -1.9525 H         1 <0>         0.0000
     29 H6         -1.6105    3.8418   -6.1723 H         1 <0>         0.0000
     30 H7          1.2477    6.5151   -4.8923 H         1 <0>         0.0000
     31 H8         -1.0755   -2.8303    0.9908 H         1 <0>         0.0000
     32 H9         -1.4991   -2.9162   -0.7327 H         1 <0>         0.0000
     33 H10         1.9667   -0.5583   -0.6205 H         1 <0>         0.0000
     34 H11         2.4198   -0.4751    1.0766 H         1 <0>         0.0000
     35 H12         0.0509   -0.3915    1.7928 H         1 <0>         0.0000
     36 H13         2.6059   -2.7762    0.0205 H         1 <0>         0.0000
     37 H14        -2.5524    4.6691   -1.5480 H         1 <0>         0.0000
     38 H15        -1.1489    5.5210   -0.9824 H         1 <0>         0.0000
     39 H16         0.5980   -4.0284   -0.2681 H         1 <0>         0.0000
@<TRIPOS>BOND
     1    1    2 ar
     2    1    8 ar
     3    2    9 ar
     4    3    6 ar
     5    3   10 ar
     6    4    7 ar
     7    4   10 ar
     8    5    9 ar
     9    5   11 ar
    10    6   19 ar
    11    7   19 ar
    12    8   11 ar
    13    8   16 1
    14    9   18 1
    15   10   18 1
    16   11   20 1
    17   12   14 1
    18   12   16 1
    19   12   20 2
    20   13   17 1
    21   13   22 1
    22   13   23 2
    23   14   21 1
    24   15   16 1
    25   15   17 1
    26   17   21 1
    27    1   24 1
    28    2   25 1
    29    3   26 1
    30    4   27 1
    31    5   28 1
    32    6   29 1
    33    7   30 1
    34   14   31 1
    35   14   32 1
    36   15   33 1
    37   15   34 1
    38   16   35 1
    39   17   36 1
    40   18   37 1
    41   18   38 1
    42   21   39 1
@<TRIPOS>MOLECULE
ligand16
   38    41     0     0     0
SMALL
NO_CHARGES

@<TRIPOS>ATOM
      1 C1          0.6293    2.2941    0.5615 C.ar      1 <0>         0.0000
      2 C2          0.1350    3.4508   -0.0447 C.ar      1 <0>         0.0000
      3 C3         -1.5457    2.1643   -1.2544 C.ar      1 <0>         0.0000
      4 C4         -1.5781    4.1706   -4.0647 C.ar      1 <0>         0.0000
      5 C5          0.0424    5.6881   -3.3384 C.ar      1 <0>         0.0000
      6 C6         -0.1777    5.1808   -5.5432 C.ar      1 <0>         0.0000
      7 C7          0.0257    1.0927    0.2446 C.ar      1 <0>         0.0000
      8 C8         -0.9434    3.3868   -0.9444 C.ar      1 <0>         0.0000
      9 C9         -0.9903    4.8347   -3.0074 C.ar      1 <0>         0.0000
     10 C10        -1.0512    1.0215   -0.6500 C.ar      1 <0>         0.0000
     11 C11        -0.7316   -1.0388   -0.0950 C.2       1 <0>         0.0000
     12 C12         1.5603   -2.9605    1.8403 C.2       1 <0>         0.0000
     13 C13        -0.7705   -2.5267   -0.0156 C.3       1 <0>         0.0000
     14 C14         1.6654   -0.8751    0.3879 C.3       1 <0>         0.0000
     15 C15         0.3012   -0.2884    0.7320 C.3       1 <0>         0.0000
     16 C16         1.6579   -2.4082    0.4295 C.3       1 <0>         0.0000
     17 C17        -1.4493    4.6408   -1.5768 C.3       1 <0>         0.0000
     18 N1         -1.1956    4.3205   -5.3498 N.ar      1 <0>         0.0000
     19 N2          0.4763    5.8859   -4.6005 N.ar      1 <0>         0.0000
     20 N3         -1.5004   -0.2999   -0.8439 N.2       1 <0>         0.0000
     21 N4          0.5678   -3.0126   -0.3478 N.3       1 <0>         0.0000
     22 O1          0.9933   -4.0836    1.9415 O.co2     1 <0>         0.0000
     23 O2          2.0611   -2.2219    2.7341 O.co2     1 <0>         0.0000
     24 H1          1.4573    2.3437    1.2595 H         1 <0>         0.0000
     25 H2          0.5934    4.4091    0.1881 H         1 <0>         0.0000
     26 H3         -2.3749    2.1093   -1.9525 H         1 <0>         0.0000
     27 H4         -2.3988    3.4773   -3.9099 H         1 <0>         0.0000
     28 H5          0.5702    6.2568   -2.5791 H         1 <0>         0.0000
     29 H6          0.1502    5.3192   -6.5661 H         1 <0>         0.0000
     30 H7         -1.0755   -2.8303    0.9908 H         1 <0>         0.0000
     31 H8         -1.4991   -2.9162   -0.7327 H         1 <0>         0.0000
     32 H9          1.9667   -0.5583   -0.6205 H         1 <0>         0.0000
     33 H10         2.4198   -0.4751    1.0766 H         1 <0>         0.0000
     34 H11         0.0509   -0.3915    1.7928 H         1 <0>         0.0000
     35 H12         2.6059   -2.7762    0.0205 H         1 <0>         0.0000
     36 H13        -2.5524    4.6691   -1.5480 H         1 <0>         0.0000
     37 H14        -1.1489    5.5210   -0.9824 H         1 <0>         0.0000
     38 H15         0.5980   -4.0284   -0.2681 H         1 <0>         0.0000
@<TRIPOS>BOND
     1    1    2 ar
     2    1    7 ar
     3    2    8 ar
     4    3    8 ar
     5    3   10 ar
     6    4    9 ar
     7    4   18 ar
     8    5    9 ar
     9    5   19 ar
    10    6   18 ar
    11    6   19 ar
    12    7   10 ar
    13    7   15 1
    14    8   17 1
    15    9   17 1
    16   10   20 1
    17   11   13 1
    18   11   15 1
    19   11   20 2
    20   12   16 1
    21   12   22 1
    22   12   23 2
    23   13   21 1
    24   14   15 1
    25   14   16 1
    26   16   21 1
    27    1   24 1
    28    2   25 1
    29    3   26 1
    30    4   27 1
    31    5   28 1
    32    6   29 1
    33   13   30 1
    34   13   31 1
    35   14   32 1
    36   14   33 1
    37   15   34 1
    38   16   35 1
    39   17   36 1
    40   17   37 1
    41   21   38 1
@<TRIPOS>MOLECULE
ligand17
   38    41     0     0     0
SMALL
NO_CHARGES

@<TRIPOS>ATOM
      1 C1          0.6293    2.2941    0.5615 C.ar      1 <0>         0.0000
      2 C2          0.1350    3.4508   -0.0447 C.ar      1 <0>         0.0000
      3 C3         -1.5972    4.1562   -4.0496 C.ar      1 <0>         0.0000
      4 C4         -1.5457    2.1643   -1.2544 C.ar      1 <0>         0.0000
      5 C5         -1.1275    4.3819   -5.3279 C.ar      1 <0>         0.0000
      6 C6          0.0463    5.6938   -3.3125 C.ar      1 <0>         0.0000
      7 C7          0.0257    1.0927    0.2446 C.ar      1 <0>         0.0000
      8 C8         -0.9434    3.3868   -0.9444 C.ar      1 <0>         0.0000
      9 C9         -0.9903    4.8347   -3.0074 C.ar      1 <0>         0.0000
     10 C10        -1.0512    1.0215   -0.6500 C.ar      1 <0>         0.0000
     11 C11        -0.7316   -1.0388   -0.0950 C.2       1 <0>         0.0000
     12 C12         1.5603   -2.9605    1.8403 C.2       1 <0>         0.0000
     13 C13        -0.7705   -2.5267   -0.0156 C.3       1 <0>         0.0000
     14 C14         1.6654   -0.8751    0.3879 C.3       1 <0>         0.0000
     15 C15         0.3012   -0.2884    0.7320 C.3       1 <0>         0.0000
     16 C16         1.6579   -2.4082    0.4295 C.3       1 <0>         0.0000
     17 C17        -1.4493    4.6408   -1.5768 C.3       1 <0>         0.0000
     18 N1         -0.1111    5.2284   -5.5972 N.ar      1 <0>         0.0000
     19 N2          0.4855    5.8950   -4.5729 N.ar      1 <0>         0.0000
     20 N3         -1.5004   -0.2999   -0.8439 N.2       1 <0>         0.0000
     21 N4          0.5678   -3.0126   -0.3478 N.3       1 <0>         0.0000
     22 O1          0.9933   -4.0836    1.9415 O.co2     1 <0>         0.0000
     23 O2          2.0611   -2.2219    2.7341 O.co2     1 <0>         0.0000
     24 H1          1.4573    2.3437    1.2595 H         1 <0>         0.0000
     25 H2          0.5934    4.4091    0.1881 H         1 <0>         0.0000
     26 H3         -2.4170    3.4675   -3.8769 H         1 <0>         0.0000
     27 H4         -2.3749    2.1093   -1.9525 H         1 <0>         0.0000
     28 H5         -1.5607    3.8821   -6.1861 H         1 <0>         0.0000
     29 H6          0.5683    6.2568   -2.5465 H         1 <0>         0.0000
     30 H7         -1.0755   -2.8303    0.9908 H         1 <0>         0.0000
     31 H8         -1.4991   -2.9162   -0.7327 H         1 <0>         0.0000
     32 H9          1.9667   -0.5583   -0.6205 H         1 <0>         0.0000
     33 H10         2.4198   -0.4751    1.0766 H         1 <0>         0.0000
     34 H11         0.0509   -0.3915    1.7928 H         1 <0>         0.0000
     35 H12         2.6059   -2.7762    0.0205 H         1 <0>         0.0000
     36 H13        -2.5524    4.6691   -1.5480 H         1 <0>         0.0000
     37 H14        -1.1489    5.5210   -0.9824 H         1 <0>         0.0000
     38 H15         0.5980   -4.0284   -0.2681 H         1 <0>         0.0000
@<TRIPOS>BOND
     1    1    2 ar
     2    1    7 ar
     3    2    8 ar
     4    3    5 ar
     5    3    9 ar
     6    4    8 ar
     7    4   10 ar
     8    5   18 ar
     9    6    9 ar
    10    6   19 ar
    11    7   10 ar
    12    7   15 1
    13    8   17 1
    14    9   17 1
    15   10   20 1
    16   11   13 1
    17   11   15 1
    18   11   20 2
    19   12   16 1
    20   12   22 1
    21   12   23 2
    22   13   21 1
    23   14   15 1
    24   14   16 1
    25   16   21 1
    26   18   19 ar
    27    1   24 1
    28    2   25 1
    29    3   26 1
    30    4   27 1
    31    5   28 1
    32    6   29 1
    33   13   30 1
    34   13   31 1
    35   14   32 1
    36   14   33 1
    37   15   34 1
    38   16   35 1
    39   17   36 1
    40   17   37 1
    41   21   38 1
@<TRIPOS>MOLECULE
ligand18
   37    40     0     0     0
SMALL
NO_CHARGES

@<TRIPOS>ATOM
      1 C1          0.6293    2.2941    0.5615 C.ar      1 <0>         0.0000
      2 C2          0.1350    3.4508   -0.0447 C.ar      1 <0>         0.0000
      3 C3         -1.5457    2.1643   -1.2544 C.ar      1 <0>         0.0000
      4 C4         -1.5613    4.1853   -4.0643 C.ar      1 <0>         0.0000
      5 C5          0.0295    5.6755   -3.3508 C.ar      1 <0>         0.0000
      6 C6          0.0257    1.0927    0.2446 C.ar      1 <0>         0.0000
      7 C7         -0.9434    3.3868   -0.9444 C.ar      1 <0>         0.0000
      8 C8         -0.9903    4.8347   -3.0074 C.ar      1 <0>         0.0000
      9 C9         -1.0512    1.0215   -0.6500 C.ar      1 <0>         0.0000
     10 C10        -0.7316   -1.0388   -0.0950 C.2       1 <0>         0.0000
     11 C11         1.5603   -2.9605    1.8403 C.2       1 <0>         0.0000
     12 C12        -0.7705   -2.5267   -0.0156 C.3       1 <0>         0.0000
     13 C13         1.6654   -0.8751    0.3879 C.3       1 <0>         0.0000
     14 C14         0.3012   -0.2884    0.7320 C.3       1 <0>         0.0000
     15 C15         1.6579   -2.4082    0.4295 C.3       1 <0>         0.0000
     16 C16        -1.4493    4.6408   -1.5768 C.3       1 <0>         0.0000
     17 N1         -1.1551    4.3574   -5.3382 N.ar      1 <0>         0.0000
     18 N2          0.4397    5.8506   -4.6231 N.ar      1 <0>         0.0000
     19 N3         -0.1650    5.1858   -5.5813 N.ar      1 <0>         0.0000
     20 N4         -1.5004   -0.2999   -0.8439 N.2       1 <0>         0.0000
     21 N5          0.5678   -3.0126   -0.3478 N.3       1 <0>         0.0000
     22 O1          0.9933   -4.0836    1.9415 O.co2     1 <0>         0.0000
     23 O2          2.0611   -2.2219    2.7341 O.co2     1 <0>         0.0000
     24 H1          1.4573    2.3437    1.2595 H         1 <0>         0.0000
     25 H2          0.5934    4.4091    0.1881 H         1 <0>         0.0000
     26 H3         -2.3749    2.1093   -1.9525 H         1 <0>         0.0000
     27 H4         -2.3823    3.4889   -3.9336 H         1 <0>         0.0000
     28 H5          0.5696    6.2546   -2.6094 H         1 <0>         0.0000
     29 H6         -1.0755   -2.8303    0.9908 H         1 <0>         0.0000
     30 H7         -1.4991   -2.9162   -0.7327 H         1 <0>         0.0000
     31 H8          1.9667   -0.5583   -0.6205 H         1 <0>         0.0000
     32 H9          2.4198   -0.4751    1.0766 H         1 <0>         0.0000
     33 H10         0.0509   -0.3915    1.7928 H         1 <0>         0.0000
     34 H11         2.6059   -2.7762    0.0205 H         1 <0>         0.0000
     35 H12        -2.5524    4.6691   -1.5480 H         1 <0>         0.0000
     36 H13        -1.1489    5.5210   -0.9824 H         1 <0>         0.0000
     37 H14         0.5980   -4.0284   -0.2681 H         1 <0>         0.0000
@<TRIPOS>BOND
     1    1    2 ar
     2    1    6 ar
     3    2    7 ar
     4    3    7 ar
     5    3    9 ar
     6    4    8 ar
     7    4   17 ar
     8    5    8 ar
     9    5   18 ar
    10    6    9 ar
    11    6   14 1
    12    7   16 1
    13    8   16 1
    14    9   20 1
    15   10   12 1
    16   10   14 1
    17   10   20 2
    18   11   15 1
    19   11   22 1
    20   11   23 2
    21   12   21 1
    22   13   14 1
    23   13   15 1
    24   15   21 1
    25   17   19 ar
    26   18   19 ar
    27    1   24 1
    28    2   25 1
    29    3   26 1
    30    4   27 1
    31    5   28 1
    32   12   29 1
    33   12   30 1
    34   13   31 1
    35   13   32 1
    36   14   33 1
    37   15   34 1
    38   16   35 1
    39   16   36 1
    40   21   37 1
@<TRIPOS>MOLECULE
ligand19
   37    40     0     0     0
SMALL
NO_CHARGES

@<TRIPOS>ATOM
      1 C1          0.6293    2.2941    0.5615 C.ar      1 <0>         0.0000
      2 C2          0.1350    3.4508   -0.0447 C.ar      1 <0>         0.0000
      3 C3         -1.5457    2.1643   -1.2544 C.ar      1 <0>         0.0000
      4 C4         -1.1780    4.3535   -5.1915 C.ar      1 <0>         0.0000
      5 C5          0.3811    5.8088   -4.4931 C.ar      1 <0>         0.0000
      6 C6          0.0257    1.0927    0.2446 C.ar      1 <0>         0.0000
      7 C7         -0.9434    3.3868   -0.9444 C.ar      1 <0>         0.0000
      8 C8         -1.0512    1.0215   -0.6500 C.ar      1 <0>         0.0000
      9 C9         -0.9903    4.8347   -3.0074 C.ar      1 <0>         0.0000
     10 C10        -0.7316   -1.0388   -0.0950 C.2       1 <0>         0.0000
     11 C11         1.5603   -2.9605    1.8403 C.2       1 <0>         0.0000
     12 C12        -0.7705   -2.5267   -0.0156 C.3       1 <0>         0.0000
     13 C13         1.6654   -0.8751    0.3879 C.3       1 <0>         0.0000
     14 C14         0.3012   -0.2884    0.7320 C.3       1 <0>         0.0000
     15 C15         1.6579   -2.4082    0.4295 C.3       1 <0>         0.0000
     16 C16        -1.4493    4.6408   -1.5768 C.3       1 <0>         0.0000
     17 N1         -0.1737    5.1747   -5.5385 N.ar      1 <0>         0.0000
     18 N2         -1.6401    4.1332   -3.9501 N.ar      1 <0>         0.0000
     19 N3          0.0268    5.6892   -3.2035 N.ar      1 <0>         0.0000
     20 N4         -1.5004   -0.2999   -0.8439 N.2       1 <0>         0.0000
     21 N5          0.5678   -3.0126   -0.3478 N.3       1 <0>         0.0000
     22 O1          0.9933   -4.0836    1.9415 O.co2     1 <0>         0.0000
     23 O2          2.0611   -2.2219    2.7341 O.co2     1 <0>         0.0000
     24 H1          1.4573    2.3437    1.2595 H         1 <0>         0.0000
     25 H2          0.5934    4.4091    0.1881 H         1 <0>         0.0000
     26 H3         -2.3749    2.1093   -1.9525 H         1 <0>         0.0000
     27 H4         -1.6646    3.8140   -5.9945 H         1 <0>         0.0000
     28 H5          1.1975    6.4856   -4.7123 H         1 <0>         0.0000
     29 H6         -1.0755   -2.8303    0.9908 H         1 <0>         0.0000
     30 H7         -1.4991   -2.9162   -0.7327 H         1 <0>         0.0000
     31 H8          1.9667   -0.5583   -0.6205 H         1 <0>         0.0000
     32 H9          2.4198   -0.4751    1.0766 H         1 <0>         0.0000
     33 H10         0.0509   -0.3915    1.7928 H         1 <0>         0.0000
     34 H11         2.6059   -2.7762    0.0205 H         1 <0>         0.0000
     35 H12        -2.5524    4.6691   -1.5480 H         1 <0>         0.0000
     36 H13        -1.1489    5.5210   -0.9824 H         1 <0>         0.0000
     37 H14         0.5980   -4.0284   -0.2681 H         1 <0>         0.0000
@<TRIPOS>BOND
     1    1    2 ar
     2    1    6 ar
     3    2    7 ar
     4    3    7 ar
     5    3    8 ar
     6    4   17 ar
     7    4   18 ar
     8    5   17 ar
     9    5   19 ar
    10    6    8 ar
    11    6   14 1
    12    7   16 1
    13    8   20 1
    14    9   16 1
    15    9   18 ar
    16    9   19 ar
    17   10   12 1
    18   10   14 1
    19   10   20 2
    20   11   15 1
    21   11   22 1
    22   11   23 2
    23   12   21 1
    24   13   14 1
    25   13   15 1
    26   15   21 1
    27    1   24 1
    28    2   25 1
    29    3   26 1
    30    4   27 1
    31    5   28 1
    32   12   29 1
    33   12   30 1
    34   13   31 1
    35   13   32 1
    36   14   33 1
    37   15   34 1
    38   16   35 1
    39   16   36 1
    40   21   37 1
@<TRIPOS>MOLECULE
ligand20
   37    40     0     0     0
SMALL
NO_CHARGES

@<TRIPOS>ATOM
      1 C1          0.6293    2.2941    0.5615 C.ar      1 <0>         0.0000
      2 C2          0.1350    3.4508   -0.0447 C.ar      1 <0>         0.0000
      3 C3          0.3444    4.8636   -3.4775 C.2       1 <0>         0.0000
      4 C4         -1.5457    2.1643   -1.2544 C.ar      1 <0>         0.0000
      5 C5          0.2666    5.0629   -4.8363 C.2       1 <0>         0.0000
      6 C6         -1.7886    5.0186   -4.1124 C.2       1 <0>         0.0000
      7 C7          0.0257    1.0927    0.2446 C.ar      1 <0>         0.0000
      8 C8         -0.9434    3.3868   -0.9444 C.ar      1 <0>         0.0000
      9 C9         -0.9903    4.8347   -3.0074 C.2       1 <0>         0.0000
     10 C10        -1.0512    1.0215   -0.6500 C.ar      1 <0>         0.0000
     11 C11        -0.7316   -1.0388   -0.0950 C.2       1 <0>         0.0000
     12 C12         1.5603   -2.9605    1.8403 C.2       1 <0>         0.0000
     13 C13        -0.7705   -2.5267   -0.0156 C.3       1 <0>         0.0000
     14 C14         1.6654   -0.8751    0.3879 C.3       1 <0>         0.0000
     15 C15         0.3012   -0.2884    0.7320 C.3       1 <0>         0.0000
     16 C16         1.6579   -2.4082    0.4295 C.3       1 <0>         0.0000
     17 C17        -1.4493    4.6408   -1.5768 C.3       1 <0>         0.0000
     18 N1         -1.5004   -0.2999   -0.8439 N.2       1 <0>         0.0000
     19 N2          0.5678   -3.0126   -0.3478 N.3       1 <0>         0.0000
     20 O1          0.9933   -4.0836    1.9415 O.co2     1 <0>         0.0000
     21 O2          2.0611   -2.2219    2.7341 O.co2     1 <0>         0.0000
     22 O3         -1.0301    5.1586   -5.2312 O.3       1 <0>         0.0000
     23 H1          1.4573    2.3437    1.2595 H         1 <0>         0.0000
     24 H2          0.5934    4.4091    0.1881 H         1 <0>         0.0000
     25 H3          1.2520    4.7533   -2.9013 H         1 <0>         0.0000
     26 H4         -2.3749    2.1093   -1.9525 H         1 <0>         0.0000
     27 H5          1.0024    5.1550   -5.6217 H         1 <0>         0.0000
     28 H6         -2.8570    5.0723   -4.2644 H         1 <0>         0.0000
     29 H7         -1.0755   -2.8303    0.9908 H         1 <0>         0.0000
     30 H8         -1.4991   -2.9162   -0.7327 H         1 <0>         0.0000
     31 H9          1.9667   -0.5583   -0.6205 H         1 <0>         0.0000
     32 H10         2.4198   -0.4751    1.0766 H         1 <0>         0.0000
     33 H11         0.0509   -0.3915    1.7928 H         1 <0>         0.0000
     34 H12         2.6059   -2.7762    0.0205 H         1 <0>         0.0000
     35 H13        -2.5524    4.6691   -1.5480 H         1 <0>         0.0000
     36 H14        -1.1489    5.5210   -0.9824 H         1 <0>         0.0000
     37 H15         0.5980   -4.0284   -0.2681 H         1 <0>         0.0000
@<TRIPOS>BOND
     1    1    2 ar
     2    1    7 ar
     3    2    8 ar
     4    3    5 2
     5    3    9 1
     6    4    8 ar
     7    4   10 ar
     8    5   22 1
     9    6    9 2
    10    6   22 1
    11    7   10 ar
    12    7   15 1
    13    8   17 1
    14    9   17 1
    15   10   18 1
    16   11   13 1
    17   11   15 1
    18   11   18 2
    19   12   16 1
    20   12   20 1
    21   12   21 2
    22   13   19 1
    23   14   15 1
    24   14   16 1
    25   16   19 1
    26    1   23 1
    27    2   24 1
    28    3   25 1
    29    4   26 1
    30    5   27 1
    31    6   28 1
    32   13   29 1
    33   13   30 1
    34   14   31 1
    35   14   32 1
    36   15   33 1
    37   16   34 1
    38   17   35 1
    39   17   36 1
    40   19   37 1
@<TRIPOS>MOLECULE
ligand21
   37    40     0     0     0
SMALL
NO_CHARGES

@<TRIPOS>ATOM
      1 C1          0.6293    2.2941    0.5615 C.ar      1 <0>         0.0000
      2 C2          0.1350    3.4508   -0.0447 C.ar      1 <0>         0.0000
      3 C3          0.3771    4.8525   -3.4077 C.2       1 <0>         0.0000
      4 C4         -1.5457    2.1643   -1.2544 C.ar      1 <0>         0.0000
      5 C5          0.5166    5.0459   -4.7644 C.2       1 <0>         0.0000
      6 C6         -1.8438    5.0154   -4.0737 C.2       1 <0>         0.0000
      7 C7          0.0257    1.0927    0.2446 C.ar      1 <0>         0.0000
      8 C8         -0.9434    3.3868   -0.9444 C.ar      1 <0>         0.0000
      9 C9         -0.9903    4.8347   -3.0074 C.2       1 <0>         0.0000
     10 C10        -1.0512    1.0215   -0.6500 C.ar      1 <0>         0.0000
     11 C11        -0.7316   -1.0388   -0.0950 C.2       1 <0>         0.0000
     12 C12         1.5603   -2.9605    1.8403 C.2       1 <0>         0.0000
     13 C13        -0.7705   -2.5267   -0.0156 C.3       1 <0>         0.0000
     14 C14         1.6654   -0.8751    0.3879 C.3       1 <0>         0.0000
     15 C15         0.3012   -0.2884    0.7320 C.3       1 <0>         0.0000
     16 C16         1.6579   -2.4082    0.4295 C.3       1 <0>         0.0000
     17 C17        -1.4493    4.6408   -1.5768 C.3       1 <0>         0.0000
     18 N1         -1.5004   -0.2999   -0.8439 N.2       1 <0>         0.0000
     19 N2          0.5678   -3.0126   -0.3478 N.3       1 <0>         0.0000
     20 O1          0.9933   -4.0836    1.9415 O.co2     1 <0>         0.0000
     21 O2          2.0611   -2.2219    2.7341 O.co2     1 <0>         0.0000
     22 S1         -0.9967    5.2051   -5.5497 S.3       1 <0>         0.0000
     23 H1          1.4573    2.3437    1.2595 H         1 <0>         0.0000
     24 H2          0.5934    4.4091    0.1881 H         1 <0>         0.0000
     25 H3          1.2188    4.7305   -2.7376 H         1 <0>         0.0000
     26 H4         -2.3749    2.1093   -1.9525 H         1 <0>         0.0000
     27 H5          1.4348    5.1020   -5.3319 H         1 <0>         0.0000
     28 H6         -2.9245    5.0470   -4.0606 H         1 <0>         0.0000
     29 H7         -1.0755   -2.8303    0.9908 H         1 <0>         0.0000
     30 H8         -1.4991   -2.9162   -0.7327 H         1 <0>         0.0000
     31 H9          1.9667   -0.5583   -0.6205 H         1 <0>         0.0000
     32 H10         2.4198   -0.4751    1.0766 H         1 <0>         0.0000
     33 H11         0.0509   -0.3915    1.7928 H         1 <0>         0.0000
     34 H12         2.6059   -2.7762    0.0205 H         1 <0>         0.0000
     35 H13        -2.5524    4.6691   -1.5480 H         1 <0>         0.0000
     36 H14        -1.1489    5.5210   -0.9824 H         1 <0>         0.0000
     37 H15         0.5980   -4.0284   -0.2681 H         1 <0>         0.0000
@<TRIPOS>BOND
     1    1    2 ar
     2    1    7 ar
     3    2    8 ar
     4    3    5 2
     5    3    9 1
     6    4    8 ar
     7    4   10 ar
     8    5   22 1
     9    6    9 2
    10    6   22 1
    11    7   10 ar
    12    7   15 1
    13    8   17 1
    14    9   17 1
    15   10   18 1
    16   11   13 1
    17   11   15 1
    18   11   18 2
    19   12   16 1
    20   12   20 1
    21   12   21 2
    22   13   19 1
    23   14   15 1
    24   14   16 1
    25   16   19 1
    26    1   23 1
    27    2   24 1
    28    3   25 1
    29    4   26 1
    30    5   27 1
    31    6   28 1
    32   13   29 1
    33   13   30 1
    34   14   31 1
    35   14   32 1
    36   15   33 1
    37   16   34 1
    38   17   35 1
    39   17   36 1
    40   19   37 1
@<TRIPOS>MOLECULE
ligand22
   36    39     0     0     0
SMALL
NO_CHARGES

@<TRIPOS>ATOM
      1 C1          0.6293    2.2941    0.5615 C.ar      1 <0>         0.0000
      2 C2          0.1350    3.4508   -0.0447 C.ar      1 <0>         0.0000
      3 C3         -1.5457    2.1643   -1.2544 C.ar      1 <0>         0.0000
      4 C4         -1.7491    5.0208   -4.1362 C.2       1 <0>         0.0000
      5 C5          0.3321    5.0316   -4.6309 C.2       1 <0>         0.0000
      6 C6          0.0257    1.0927    0.2446 C.ar      1 <0>         0.0000
      7 C7         -0.9434    3.3868   -0.9444 C.ar      1 <0>         0.0000
      8 C8         -1.0512    1.0215   -0.6500 C.ar      1 <0>         0.0000
      9 C9         -0.9903    4.8347   -3.0074 C.2       1 <0>         0.0000
     10 C10        -0.7316   -1.0388   -0.0950 C.2       1 <0>         0.0000
     11 C11         1.5603   -2.9605    1.8403 C.2       1 <0>         0.0000
     12 C12        -0.7705   -2.5267   -0.0156 C.3       1 <0>         0.0000
     13 C13         1.6654   -0.8751    0.3879 C.3       1 <0>         0.0000
     14 C14         0.3012   -0.2884    0.7320 C.3       1 <0>         0.0000
     15 C15         1.6579   -2.4082    0.4295 C.3       1 <0>         0.0000
     16 C16        -1.4493    4.6408   -1.5768 C.3       1 <0>         0.0000
     17 N1          0.3425    4.8424   -3.3308 N.2       1 <0>         0.0000
     18 N2         -1.5004   -0.2999   -0.8439 N.2       1 <0>         0.0000
     19 N3          0.5678   -3.0126   -0.3478 N.3       1 <0>         0.0000
     20 O1          0.9933   -4.0836    1.9415 O.co2     1 <0>         0.0000
     21 O2          2.0611   -2.2219    2.7341 O.co2     1 <0>         0.0000
     22 O3         -0.9013    5.1495   -5.1946 O.3       1 <0>         0.0000
     23 H1          1.4573    2.3437    1.2595 H         1 <0>         0.0000
     24 H2          0.5934    4.4091    0.1881 H         1 <0>         0.0000
     25 H3         -2.3749    2.1093   -1.9525 H         1 <0>         0.0000
     26 H4         -2.8046    5.0825   -4.3541 H         1 <0>         0.0000
     27 H5          1.1763    5.1036   -5.3001 H         1 <0>         0.0000
     28 H6         -1.0755   -2.8303    0.9908 H         1 <0>         0.0000
     29 H7         -1.4991   -2.9162   -0.7327 H         1 <0>         0.0000
     30 H8          1.9667   -0.5583   -0.6205 H         1 <0>         0.0000
     31 H9          2.4198   -0.4751    1.0766 H         1 <0>         0.0000
     32 H10         0.0509   -0.3915    1.7928 H         1 <0>         0.0000
     33 H11         2.6059   -2.7762    0.0205 H         1 <0>         0.0000
     34 H12        -2.5524    4.6691   -1.5480 H         1 <0>         0.0000
     35 H13        -1.1489    5.5210   -0.9824 H         1 <0>         0.0000
     36 H14         0.5980   -4.0284   -0.2681 H         1 <0>         0.0000
@<TRIPOS>BOND
     1    1    2 ar
     2    1    6 ar
     3    2    7 ar
     4    3    7 ar
     5    3    8 ar
     6    4    9 2
     7    4   22 1
     8    5   17 2
     9    5   22 1
    10    6    8 ar
    11    6   14 1
    12    7   16 1
    13    8   18 1
    14    9   16 1
    15    9   17 1
    16   10   12 1
    17   10   14 1
    18   10   18 2
    19   11   15 1
    20   11   20 1
    21   11   21 2
    22   12   19 1
    23   13   14 1
    24   13   15 1
    25   15   19 1
    26    1   23 1
    27    2   24 1
    28    3   25 1
    29    4   26 1
    30    5   27 1
    31   12   28 1
    32   12   29 1
    33   13   30 1
    34   13   31 1
    35   14   32 1
    36   15   33 1
    37   16   34 1
    38   16   35 1
    39   19   36 1
@<TRIPOS>MOLECULE
ligand23
   36    39     0     0     0
SMALL
NO_CHARGES

@<TRIPOS>ATOM
      1 C1          0.6293    2.2941    0.5615 C.ar      1 <0>         0.0000
      2 C2          0.1350    3.4508   -0.0447 C.ar      1 <0>         0.0000
      3 C3         -1.5457    2.1643   -1.2544 C.ar      1 <0>         0.0000
      4 C4          0.3253    4.8676   -3.5011 C.2       1 <0>         0.0000
      5 C5         -1.7619    5.0192   -4.1240 C.2       1 <0>         0.0000
      6 C6          0.0257    1.0927    0.2446 C.ar      1 <0>         0.0000
      7 C7         -0.9434    3.3868   -0.9444 C.ar      1 <0>         0.0000
      8 C8         -0.9903    4.8347   -3.0074 C.2       1 <0>         0.0000
      9 C9         -1.0512    1.0215   -0.6500 C.ar      1 <0>         0.0000
     10 C10        -0.7316   -1.0388   -0.0950 C.2       1 <0>         0.0000
     11 C11         1.5603   -2.9605    1.8403 C.2       1 <0>         0.0000
     12 C12        -0.7705   -2.5267   -0.0156 C.3       1 <0>         0.0000
     13 C13         1.6654   -0.8751    0.3879 C.3       1 <0>         0.0000
     14 C14         0.3012   -0.2884    0.7320 C.3       1 <0>         0.0000
     15 C15         1.6579   -2.4082    0.4295 C.3       1 <0>         0.0000
     16 C16        -1.4493    4.6408   -1.5768 C.3       1 <0>         0.0000
     17 N1          0.3665    5.0580   -4.8229 N.2       1 <0>         0.0000
     18 N2         -1.5004   -0.2999   -0.8439 N.2       1 <0>         0.0000
     19 N3          0.5678   -3.0126   -0.3478 N.3       1 <0>         0.0000
     20 O1          0.9933   -4.0836    1.9415 O.co2     1 <0>         0.0000
     21 O2          2.0611   -2.2219    2.7341 O.co2     1 <0>         0.0000
     22 O3         -0.9636    5.1537   -5.2139 O.3       1 <0>         0.0000
     23 H1          1.4573    2.3437    1.2595 H         1 <0>         0.0000
     24 H2          0.5934    4.4091    0.1881 H         1 <0>         0.0000
     25 H3         -2.3749    2.1093   -1.9525 H         1 <0>         0.0000
     26 H4          1.2547    4.7624   -2.9609 H         1 <0>         0.0000
     27 H5         -2.8243    5.0762   -4.3094 H         1 <0>         0.0000
     28 H6         -1.0755   -2.8303    0.9908 H         1 <0>         0.0000
     29 H7         -1.4991   -2.9162   -0.7327 H         1 <0>         0.0000
     30 H8          1.9667   -0.5583   -0.6205 H         1 <0>         0.0000
     31 H9          2.4198   -0.4751    1.0766 H         1 <0>         0.0000
     32 H10         0.0509   -0.3915    1.7928 H         1 <0>         0.0000
     33 H11         2.6059   -2.7762    0.0205 H         1 <0>         0.0000
     34 H12        -2.5524    4.6691   -1.5480 H         1 <0>         0.0000
     35 H13        -1.1489    5.5210   -0.9824 H         1 <0>         0.0000
     36 H14         0.5980   -4.0284   -0.2681 H         1 <0>         0.0000
@<TRIPOS>BOND
     1    1    2 ar
     2    1    6 ar
     3    2    7 ar
     4    3    7 ar
     5    3    9 ar
     6    4    8 1
     7    4   17 2
     8    5    8 2
     9    5   22 1
    10    6    9 ar
    11    6   14 1
    12    7   16 1
    13    8   16 1
    14    9   18 1
    15   10   12 1
    16   10   14 1
    17   10   18 2
    18   11   15 1
    19   11   20 1
    20   11   21 2
    21   12   19 1
    22   13   14 1
    23   13   15 1
    24   15   19 1
    25   17   22 1
    26    1   23 1
    27    2   24 1
    28    3   25 1
    29    4   26 1
    30    5   27 1
    31   12   28 1
    32   12   29 1
    33   13   30 1
    34   13   31 1
    35   14   32 1
    36   15   33 1
    37   16   34 1
    38   16   35 1
    39   19   36 1
@<TRIPOS>MOLECULE
ligand24
   36    39     0     0     0
SMALL
NO_CHARGES

@<TRIPOS>ATOM
      1 C1          0.6293    2.2941    0.5615 C.ar      1 <0>         0.0000
      2 C2          0.1350    3.4508   -0.0447 C.ar      1 <0>         0.0000
      3 C3         -1.5457    2.1643   -1.2544 C.ar      1 <0>         0.0000
      4 C4         -1.8132    5.0173   -4.0991 C.2       1 <0>         0.0000
      5 C5          0.5518    5.0116   -4.5569 C.2       1 <0>         0.0000
      6 C6          0.0257    1.0927    0.2446 C.ar      1 <0>         0.0000
      7 C7         -0.9434    3.3868   -0.9444 C.ar      1 <0>         0.0000
      8 C8         -1.0512    1.0215   -0.6500 C.ar      1 <0>         0.0000
      9 C9         -0.9903    4.8347   -3.0074 C.2       1 <0>         0.0000
     10 C10        -0.7316   -1.0388   -0.0950 C.2       1 <0>         0.0000
     11 C11         1.5603   -2.9605    1.8403 C.2       1 <0>         0.0000
     12 C12        -0.7705   -2.5267   -0.0156 C.3       1 <0>         0.0000
     13 C13         1.6654   -0.8751    0.3879 C.3       1 <0>         0.0000
     14 C14         0.3012   -0.2884    0.7320 C.3       1 <0>         0.0000
     15 C15         1.6579   -2.4082    0.4295 C.3       1 <0>         0.0000
     16 C16        -1.4493    4.6408   -1.5768 C.3       1 <0>         0.0000
     17 N1          0.3661    4.8308   -3.2681 N.2       1 <0>         0.0000
     18 N2         -1.5004   -0.2999   -0.8439 N.2       1 <0>         0.0000
     19 N3          0.5678   -3.0126   -0.3478 N.3       1 <0>         0.0000
     20 O1          0.9933   -4.0836    1.9415 O.co2     1 <0>         0.0000
     21 O2          2.0611   -2.2219    2.7341 O.co2     1 <0>         0.0000
     22 S1         -0.8607    5.1941   -5.5143 S.3       1 <0>         0.0000
     23 H1          1.4573    2.3437    1.2595 H         1 <0>         0.0000
     24 H2          0.5934    4.4091    0.1881 H         1 <0>         0.0000
     25 H3         -2.3749    2.1093   -1.9525 H         1 <0>         0.0000
     26 H4         -2.8927    5.0560   -4.1371 H         1 <0>         0.0000
     27 H5          1.5390    5.0447   -4.9969 H         1 <0>         0.0000
     28 H6         -1.0755   -2.8303    0.9908 H         1 <0>         0.0000
     29 H7         -1.4991   -2.9162   -0.7327 H         1 <0>         0.0000
     30 H8          1.9667   -0.5583   -0.6205 H         1 <0>         0.0000
     31 H9          2.4198   -0.4751    1.0766 H         1 <0>         0.0000
     32 H10         0.0509   -0.3915    1.7928 H         1 <0>         0.0000
     33 H11         2.6059   -2.7762    0.0205 H         1 <0>         0.0000
     34 H12        -2.5524    4.6691   -1.5480 H         1 <0>         0.0000
     35 H13        -1.1489    5.5210   -0.9824 H         1 <0>         0.0000
     36 H14         0.5980   -4.0284   -0.2681 H         1 <0>         0.0000
@<TRIPOS>BOND
     1    1    2 ar
     2    1    6 ar
     3    2    7 ar
     4    3    7 ar
     5    3    8 ar
     6    4    9 2
     7    4   22 1
     8    5   17 2
     9    5   22 1
    10    6    8 ar
    11    6   14 1
    12    7   16 1
    13    8   18 1
    14    9   16 1
    15    9   17 1
    16   10   12 1
    17   10   14 1
    18   10   18 2
    19   11   15 1
    20   11   20 1
    21   11   21 2
    22   12   19 1
    23   13   14 1
    24   13   15 1
    25   15   19 1
    26    1   23 1
    27    2   24 1
    28    3   25 1
    29    4   26 1
    30    5   27 1
    31   12   28 1
    32   12   29 1
    33   13   30 1
    34   13   31 1
    35   14   32 1
    36   15   33 1
    37   16   34 1
    38   16   35 1
    39   19   36 1
@<TRIPOS>MOLECULE
ligand25
   37    40     0     0     0
SMALL
NO_CHARGES

@<TRIPOS>ATOM
      1 C1          0.6293    2.2941    0.5615 C.ar      1 <0>         0.0000
      2 C2          0.1350    3.4508   -0.0447 C.ar      1 <0>         0.0000
      3 C3         -1.5457    2.1643   -1.2544 C.ar      1 <0>         0.0000
      4 C4          0.2576    4.8814   -3.5828 C.2       1 <0>         0.0000
      5 C5         -1.1178    5.1534   -5.1843 C.2       1 <0>         0.0000
      6 C6          0.0257    1.0927    0.2446 C.ar      1 <0>         0.0000
      7 C7         -0.9434    3.3868   -0.9444 C.ar      1 <0>         0.0000
      8 C8         -1.0512    1.0215   -0.6500 C.ar      1 <0>         0.0000
      9 C9         -0.9903    4.8347   -3.0074 C.2       1 <0>         0.0000
     10 C10        -0.7316   -1.0388   -0.0950 C.2       1 <0>         0.0000
     11 C11         1.5603   -2.9605    1.8403 C.2       1 <0>         0.0000
     12 C12        -0.7705   -2.5267   -0.0156 C.3       1 <0>         0.0000
     13 C13         1.6654   -0.8751    0.3879 C.3       1 <0>         0.0000
     14 C14         0.3012   -0.2884    0.7320 C.3       1 <0>         0.0000
     15 C15         1.6579   -2.4082    0.4295 C.3       1 <0>         0.0000
     16 C16        -1.4493    4.6408   -1.5768 C.3       1 <0>         0.0000
     17 N1          0.1713    5.0803   -4.9381 N.2       1 <0>         0.0000
     18 N2         -1.5004   -0.2999   -0.8439 N.2       1 <0>         0.0000
     19 N3         -1.8611    5.0109   -4.0456 N.pl3     1 <0>         0.0000
     20 N4          0.5678   -3.0126   -0.3478 N.3       1 <0>         0.0000
     21 O1          0.9933   -4.0836    1.9415 O.co2     1 <0>         0.0000
     22 O2          2.0611   -2.2219    2.7341 O.co2     1 <0>         0.0000
     23 H1          1.4573    2.3437    1.2595 H         1 <0>         0.0000
     24 H2          0.5934    4.4091    0.1881 H         1 <0>         0.0000
     25 H3         -2.3749    2.1093   -1.9525 H         1 <0>         0.0000
     26 H4          1.2154    4.7823   -3.0923 H         1 <0>         0.0000
     27 H5         -1.5738    5.3064   -6.1521 H         1 <0>         0.0000
     28 H6         -1.0755   -2.8303    0.9908 H         1 <0>         0.0000
     29 H7         -1.4991   -2.9162   -0.7327 H         1 <0>         0.0000
     30 H8          1.9667   -0.5583   -0.6205 H         1 <0>         0.0000
     31 H9          2.4198   -0.4751    1.0766 H         1 <0>         0.0000
     32 H10         0.0509   -0.3915    1.7928 H         1 <0>         0.0000
     33 H11         2.6059   -2.7762    0.0205 H         1 <0>         0.0000
     34 H12        -2.5524    4.6691   -1.5480 H         1 <0>         0.0000
     35 H13        -1.1489    5.5210   -0.9824 H         1 <0>         0.0000
     36 H14        -2.8708    5.0313   -3.9862 H         1 <0>         0.0000
     37 H15         0.5980   -4.0284   -0.2681 H         1 <0>         0.0000
@<TRIPOS>BOND
     1    1    2 ar
     2    1    6 ar
     3    2    7 ar
     4    3    7 ar
     5    3    8 ar
     6    4    9 2
     7    4   17 1
     8    5   17 2
     9    5   19 1
    10    6    8 ar
    11    6   14 1
    12    7   16 1
    13    8   18 1
    14    9   16 1
    15    9   19 1
    16   10   12 1
    17   10   14 1
    18   10   18 2
    19   11   15 1
    20   11   21 1
    21   11   22 2
    22   12   20 1
    23   13   14 1
    24   13   15 1
    25   15   20 1
    26    1   23 1
    27    2   24 1
    28    3   25 1
    29    4   26 1
    30    5   27 1
    31   12   28 1
    32   12   29 1
    33   13   30 1
    34   13   31 1
    35   14   32 1
    36   15   33 1
    37   16   34 1
    38   16   35 1
    39   19   36 1
    40   20   37 1
